Program Version,EnergyPlus, Version 22.1.0-ed759b17ee, YMD=2026.03.21 20:19
! This file shows details about the branches, nodes, and other
! elements of the flow connections.
! This file is intended for use in "debugging" potential problems
! that may also be detected by the program, but may be more easily
! identified by "eye".
! This file is also intended to support software which draws a
! schematic diagram of the HVAC system.
! ===============================================================
! #Nodes,<Number of Unique Nodes>
 #Nodes,351
! <Node>,<NodeNumber>,<Node Name>,<Node Fluid Type>,<# Times Node Referenced After Definition>
 Node,1,VAV_BOT WITH REHEAT_OAINLET NODE,Air,3
 Node,2,CORE_BOTTOM VAV BOX OUTLET NODE,Air,4
 Node,3,PERIMETER_BOT_ZN_3 VAV BOX OUTLET NODE,Air,4
 Node,4,PERIMETER_BOT_ZN_2 VAV BOX OUTLET NODE,Air,4
 Node,5,PERIMETER_BOT_ZN_1 VAV BOX OUTLET NODE,Air,4
 Node,6,PERIMETER_BOT_ZN_4 VAV BOX OUTLET NODE,Air,4
 Node,7,VAV_MID WITH REHEAT_OAINLET NODE,Air,3
 Node,8,CORE_MID VAV BOX OUTLET NODE,Air,4
 Node,9,PERIMETER_MID_ZN_3 VAV BOX OUTLET NODE,Air,4
 Node,10,PERIMETER_MID_ZN_2 VAV BOX OUTLET NODE,Air,4
 Node,11,PERIMETER_MID_ZN_1 VAV BOX OUTLET NODE,Air,4
 Node,12,PERIMETER_MID_ZN_4 VAV BOX OUTLET NODE,Air,4
 Node,13,VAV_TOP WITH REHEAT_OAINLET NODE,Air,3
 Node,14,CORE_TOP VAV BOX OUTLET NODE,Air,4
 Node,15,PERIMETER_TOP_ZN_3 VAV BOX OUTLET NODE,Air,4
 Node,16,PERIMETER_TOP_ZN_2 VAV BOX OUTLET NODE,Air,4
 Node,17,PERIMETER_TOP_ZN_1 VAV BOX OUTLET NODE,Air,4
 Node,18,PERIMETER_TOP_ZN_4 VAV BOX OUTLET NODE,Air,4
 Node,19,BASEMENT DIRECT AIR INLET NODE,Air,5
 Node,20,CAV_BAS OAINLET NODE,Air,3
 Node,21,DATACENTER_BASEMENT_ZN_6 DIRECT AIR INLET NODE,Air,5
 Node,22,AIRLOOP DATACENTER BASEMENT OAINLET NODE,Air,3
 Node,23,DATACENTER_BOT_ZN_6 DIRECT AIR INLET NODE,Air,5
 Node,24,AIRLOOP DATACENTER BOT OAINLET NODE,Air,3
 Node,25,DATACENTER_MID_ZN_6 DIRECT AIR INLET NODE,Air,5
 Node,26,AIRLOOP DATACENTER MID OAINLET NODE,Air,3
 Node,27,DATACENTER_TOP_ZN_6 DIRECT AIR INLET NODE,Air,5
 Node,28,AIRLOOP DATACENTER TOP OAINLET NODE,Air,3
 Node,29,HEATSYS1 SUPPLY INLET NODE,Water,3
 Node,30,HEATSYS1 PUMP-HEATSYS1 BOILERNODEVIACONNECTOR,Water,1
 Node,31,HEATSYS1 PUMP-HEATSYS1 BOILERNODE,Water,1
 Node,32,HEATSYS1 SUPPLY EQUIPMENT OUTLET NODE,Water,1
 Node,33,HEATSYS1 SUPPLY EQUIP BYPASS INLET NODE,Water,1
 Node,34,HEATSYS1 SUPPLY EQUIP BYPASS OUTLET NODE,Water,1
 Node,35,HEATSYS1 SUPPLY MIXER-HEATSYS1 SUPPLY OUTLET PIPE,Water,1
 Node,36,HEATSYS1 SUPPLY OUTLET NODE,Water,4
 Node,37,HEATSYS1 DEMAND INLET NODE,Water,2
 Node,38,HEATSYS1 DEMAND INLET PIPE-HEATSYS1 DEMAND MIXER,Water,1
 Node,39,HEATSYS1 DEMAND BYPASS PIPE INLET NODE,Water,1
 Node,40,HEATSYS1 DEMAND BYPASS PIPE OUTLET NODE,Water,1
 Node,41,HEATSYS1 DEMAND MIXER-HEATSYS1 DEMAND OUTLET PIPE,Water,1
 Node,42,HEATSYS1 DEMAND OUTLET NODE,Water,2
 Node,43,COOLSYS1 SUPPLY INLET NODE,Water,2
 Node,44,COOLSYS1 PUMP-COOLSYS1 CHILLERNODEVIACONNECTOR,Water,1
 Node,45,COOLSYS1 CHILLER1 PUMP INLET NODE,Water,1
 Node,46,COOLSYS1 PUMP-COOLSYS1 CHILLER1NODE,Water,3
 Node,47,COOLSYS1 SUPPLY EQUIPMENT OUTLET NODE 1,Water,1
 Node,48,COOLSYS1 CHILLER2 PUMP INLET NODE,Water,1
 Node,49,COOLSYS1 PUMP-COOLSYS1 CHILLER2NODE,Water,3
 Node,50,COOLSYS1 SUPPLY EQUIPMENT OUTLET NODE 2,Water,1
 Node,51,COOLSYS1 SUPPLY EQUIP BYPASS INLET NODE,Water,1
 Node,52,COOLSYS1 SUPPLY EQUIP BYPASS OUTLET NODE,Water,1
 Node,53,COOLSYS1 SUPPLY MIXER-COOLSYS1 SUPPLY OUTLET PIPE,Water,1
 Node,54,COOLSYS1 SUPPLY OUTLET NODE,Water,4
 Node,55,COOLSYS1 DEMAND INLET NODE,Water,4
 Node,56,COOLSYS1 PUMP SECONDARY-COOLSYS1 DEMAND MIXER,Water,1
 Node,57,COOLSYS1 DEMAND MIXER-COOLSYS1 DEMAND OUTLET PIPE,Water,1
 Node,58,COOLSYS1 DEMAND OUTLET NODE,Water,2
 Node,59,COOLSYS1 SUPPLY DEMAND SIDE INLET PIPE INLET NODE,Water,2
 Node,60,COOLSYS1 SUPPLY DEMAND SIDE INLET PIPE OUTLET NODE,Water,1
 Node,61,COOLSYS1 EXCHANGER  SUPPLY INLET NODE,Water,1
 Node,62,COOLSYS1 EXCHANGER  SUPPLY OUTLET NODE,Water,1
 Node,63,COOLSYS1 SUPPLY BYPASS INLET NODE,Water,1
 Node,64,COOLSYS1 SUPPLY BYPASS OUTLET NODE,Water,1
 Node,65,COOLSYS1 SUPPLY DEMAND SIDE OUTLET PIPE INLET NODE,Water,1
 Node,66,COOLSYS1 SUPPLY DEMAND SIDE OUTLET PIPE OUTLET NODE,Water,2
 Node,67,COOLSYS1 DEMAND SUPPLY SIDE INLET PIPE INLET NODE,Water,2
 Node,68,COOLSYS1 DEMAND SUPPLY SIDE INLET PIPE OUTLET NODE,Water,1
 Node,69,COOLSYS1 EXCHANGER  DEMAND INLET NODE,Water,1
 Node,70,COOLSYS1 EXCHANGER  DEMAND OUTLET NODE,Water,1
 Node,71,COOLSYS1 DEMAND BYPASS INLET NODE,Water,1
 Node,72,COOLSYS1 DEMAND BYPASS OUTLET NODE,Water,1
 Node,73,COOLSYS1 DEMAND SUPPLY SIDE OUTLET PIPE INLET NODE,Water,1
 Node,74,COOLSYS1 DEMAND SUPPLY SIDE OUTLET PIPE OUTLET NODE,Water,2
 Node,75,TOWERWATERSYS SUPPLY INLET NODE,Water,2
 Node,76,TOWERWATERSYS PUMP-TOWERWATERSYS COOLTOWERNODEVIACONNECTOR,Water,1
 Node,77,TOWERWATERSYS PUMP-TOWERWATERSYS COOLTOWER1NODE,Water,1
 Node,78,TOWERWATERSYS SUPPLY EQUIPMENT OUTLET NODE 1,Water,1
 Node,79,TOWERWATERSYS PUMP-TOWERWATERSYS COOLTOWER2NODE,Water,1
 Node,80,TOWERWATERSYS SUPPLY EQUIPMENT OUTLET NODE 2,Water,1
 Node,81,TOWERWATERSYS SUPPLY EQUIP BYPASS INLET NODE,Water,1
 Node,82,TOWERWATERSYS SUPPLY EQUIP BYPASS OUTLET NODE,Water,1
 Node,83,TOWERWATERSYS SUPPLY MIXER-TOWERWATERSYS SUPPLY OUTLET PIPE,Water,1
 Node,84,TOWERWATERSYS SUPPLY OUTLET NODE,Water,4
 Node,85,TOWERWATERSYS DEMAND INLET NODE,Water,2
 Node,86,TOWERWATERSYS DEMAND INLET PIPE-TOWERWATERSYS DEMAND MIXER,Water,1
 Node,87,COOLSYS1 CHILLER1 WATER INLET NODE,Water,1
 Node,88,COOLSYS1 CHILLER1 WATER OUTLET NODE,Water,1
 Node,89,COOLSYS1 CHILLER2 WATER INLET NODE,Water,1
 Node,90,COOLSYS1 CHILLER2 WATER OUTLET NODE,Water,1
 Node,91,TOWERWATERSYS DEMAND BYPASS PIPE INLET NODE,Water,1
 Node,92,TOWERWATERSYS DEMAND BYPASS PIPE OUTLET NODE,Water,1
 Node,93,TOWERWATERSYS DEMAND MIXER-TOWERWATERSYS DEMAND OUTLET PIPE,Water,1
 Node,94,TOWERWATERSYS DEMAND OUTLET NODE,Water,2
 Node,95,PLANT SUPPLY INLET NODE,Water,2
 Node,96,PLANT PUMP OUTLET NODE,Water,1
 Node,97,CENTRAL TOWER INLET NODE,Water,2
 Node,98,CENTRAL TOWER OUTLET NODE,Water,1
 Node,99,CENTRAL BOILER INLET NODE,Water,2
 Node,100,CENTRAL BOILER OUTLET NODE,Water,1
 Node,101,PLANT SUPPLY BYPASS INLET NODE,Water,1
 Node,102,PLANT SUPPLY BYPASS OUTLET NODE,Water,1
 Node,103,PLANT SUPPLY EXIT PIPE INLET NODE,Water,1
 Node,104,PLANT SUPPLY OUTLET NODE,Water,6
 Node,105,PLANT DEMAND INLET NODE,Water,2
 Node,106,PLANT DEMAND ENTRANCE PIPE OUTLET NODE,Water,1
 Node,107,COND DEMAND BYPASS INLET NODE,Water,1
 Node,108,COND DEMAND BYPASS OUTLET NODE,Water,1
 Node,109,PLANT DEMAND EXIT PIPE INLET NODE,Water,1
 Node,110,PLANT DEMAND OUTLET NODE,Water,2
 Node,111,VAV_BOT WITH REHEAT SUPPLY EQUIPMENT INLET NODE,Air,3
 Node,112,VAV_BOT WITH REHEAT_OA-VAV_BOT WITH REHEAT_COOLCNODE,Air,5
 Node,113,VAV_BOT WITH REHEAT_COOLC-VAV_BOT WITH REHEAT_HEATCNODE,Air,5
 Node,114,VAV_BOT WITH REHEAT_HEATC-VAV_BOT WITH REHEAT FANNODE,Air,8
 Node,115,VAV_BOT WITH REHEAT SUPPLY EQUIPMENT OUTLET NODE,Air,9
 Node,116,VAV_BOT WITH REHEAT CCOIL WATER INLET,Water,2
 Node,117,VAV_BOT WITH REHEAT CCOIL WATER OUTLET,Water,1
 Node,118,VAV_BOT WITH REHEAT HCOIL WATER INLET,Water,2
 Node,119,VAV_BOT WITH REHEAT HCOIL WATER OUTLET,Water,1
 Node,120,CORE_BOTTOM HCOIL WATER INLET,Water,1
 Node,121,CORE_BOTTOM HCOIL WATER OUTLET,Water,1
 Node,122,PERIMETER_BOT_ZN_3 HCOIL WATER INLET,Water,1
 Node,123,PERIMETER_BOT_ZN_3 HCOIL WATER OUTLET,Water,1
 Node,124,PERIMETER_BOT_ZN_2 HCOIL WATER INLET,Water,1
 Node,125,PERIMETER_BOT_ZN_2 HCOIL WATER OUTLET,Water,1
 Node,126,PERIMETER_BOT_ZN_1 HCOIL WATER INLET,Water,1
 Node,127,PERIMETER_BOT_ZN_1 HCOIL WATER OUTLET,Water,1
 Node,128,PERIMETER_BOT_ZN_4 HCOIL WATER INLET,Water,1
 Node,129,PERIMETER_BOT_ZN_4 HCOIL WATER OUTLET,Water,1
 Node,130,VAV_MID WITH REHEAT SUPPLY EQUIPMENT INLET NODE,Air,3
 Node,131,VAV_MID WITH REHEAT_OA-VAV_MID WITH REHEAT_COOLCNODE,Air,5
 Node,132,VAV_MID WITH REHEAT_COOLC-VAV_MID WITH REHEAT_HEATCNODE,Air,5
 Node,133,VAV_MID WITH REHEAT_HEATC-VAV_MID WITH REHEAT FANNODE,Air,8
 Node,134,VAV_MID WITH REHEAT SUPPLY EQUIPMENT OUTLET NODE,Air,9
 Node,135,VAV_MID WITH REHEAT CCOIL WATER INLET,Water,2
 Node,136,VAV_MID WITH REHEAT CCOIL WATER OUTLET,Water,1
 Node,137,VAV_MID WITH REHEAT HCOIL WATER INLET,Water,2
 Node,138,VAV_MID WITH REHEAT HCOIL WATER OUTLET,Water,1
 Node,139,CORE_MID HCOIL WATER INLET,Water,1
 Node,140,CORE_MID HCOIL WATER OUTLET,Water,1
 Node,141,PERIMETER_MID_ZN_3 HCOIL WATER INLET,Water,1
 Node,142,PERIMETER_MID_ZN_3 HCOIL WATER OUTLET,Water,1
 Node,143,PERIMETER_MID_ZN_2 HCOIL WATER INLET,Water,1
 Node,144,PERIMETER_MID_ZN_2 HCOIL WATER OUTLET,Water,1
 Node,145,PERIMETER_MID_ZN_1 HCOIL WATER INLET,Water,1
 Node,146,PERIMETER_MID_ZN_1 HCOIL WATER OUTLET,Water,1
 Node,147,PERIMETER_MID_ZN_4 HCOIL WATER INLET,Water,1
 Node,148,PERIMETER_MID_ZN_4 HCOIL WATER OUTLET,Water,1
 Node,149,VAV_TOP WITH REHEAT SUPPLY EQUIPMENT INLET NODE,Air,3
 Node,150,VAV_TOP WITH REHEAT_OA-VAV_TOP WITH REHEAT_COOLCNODE,Air,5
 Node,151,VAV_TOP WITH REHEAT_COOLC-VAV_TOP WITH REHEAT_HEATCNODE,Air,5
 Node,152,VAV_TOP WITH REHEAT_HEATC-VAV_TOP WITH REHEAT FANNODE,Air,8
 Node,153,VAV_TOP WITH REHEAT SUPPLY EQUIPMENT OUTLET NODE,Air,9
 Node,154,VAV_TOP WITH REHEAT CCOIL WATER INLET,Water,2
 Node,155,VAV_TOP WITH REHEAT CCOIL WATER OUTLET,Water,1
 Node,156,VAV_TOP WITH REHEAT HCOIL WATER INLET,Water,2
 Node,157,VAV_TOP WITH REHEAT HCOIL WATER OUTLET,Water,1
 Node,158,CORE_TOP HCOIL WATER INLET,Water,1
 Node,159,CORE_TOP HCOIL WATER OUTLET,Water,1
 Node,160,PERIMETER_TOP_ZN_3 HCOIL WATER INLET,Water,1
 Node,161,PERIMETER_TOP_ZN_3 HCOIL WATER OUTLET,Water,1
 Node,162,PERIMETER_TOP_ZN_2 HCOIL WATER INLET,Water,1
 Node,163,PERIMETER_TOP_ZN_2 HCOIL WATER OUTLET,Water,1
 Node,164,PERIMETER_TOP_ZN_1 HCOIL WATER INLET,Water,1
 Node,165,PERIMETER_TOP_ZN_1 HCOIL WATER OUTLET,Water,1
 Node,166,PERIMETER_TOP_ZN_4 HCOIL WATER INLET,Water,1
 Node,167,PERIMETER_TOP_ZN_4 HCOIL WATER OUTLET,Water,1
 Node,168,CAV_BAS CCOIL WATER INLET,Water,2
 Node,169,CAV_BAS CCOIL WATER OUTLET,Water,1
 Node,170,CAV_BAS HCOIL WATER INLET,Water,2
 Node,171,CAV_BAS HCOIL WATER OUTLET,Water,1
 Node,172,CAV_BAS SUPPLY EQUIPMENT INLET NODE,Air,3
 Node,173,CAV_BAS MIXED AIR OUTLET,Air,5
 Node,174,CAV_BAS COOLING COIL OUTLET,Air,5
 Node,175,CAV_BAS HEATING COIL OUTLET,Air,8
 Node,176,CAV_BAS SUPPLY EQUIPMENT OUTLET NODE,Air,7
 Node,177,AIRLOOP DATACENTER BASEMENT CCOIL WATER INLET,Water,1
 Node,178,AIRLOOP DATACENTER BASEMENT CCOIL WATER OUTLET,Water,1
 Node,179,AIRLOOP DATACENTER BASEMENT HCOIL WATER INLET,Water,1
 Node,180,AIRLOOP DATACENTER BASEMENT HCOIL WATER OUTLET,Water,1
 Node,181,AIRLOOP DATACENTER BASEMENT SUPPLY EQUIPMENT INLET NODE,Air,3
 Node,182,AIRLOOP DATACENTER BASEMENT MIXED AIR OUTLET,Air,7
 Node,183,AIRLOOP DATACENTER BASEMENT SUP HEATC OUTLET NODE,Air,4
 Node,184,AIRLOOP DATACENTER BASEMENT SUPPLY EQUIPMENT OUTLET NODE,Air,4
 Node,185,AIRLOOP DATACENTER BOT CCOIL WATER INLET,Water,1
 Node,186,AIRLOOP DATACENTER BOT CCOIL WATER OUTLET,Water,1
 Node,187,AIRLOOP DATACENTER BOT HCOIL WATER INLET,Water,1
 Node,188,AIRLOOP DATACENTER BOT HCOIL WATER OUTLET,Water,1
 Node,189,AIRLOOP DATACENTER BOT SUPPLY EQUIPMENT INLET NODE,Air,3
 Node,190,AIRLOOP DATACENTER BOT MIXED AIR OUTLET,Air,7
 Node,191,AIRLOOP DATACENTER BOT SUPPLY EQUIPMENT OUTLET NODE,Air,4
 Node,192,AIRLOOP DATACENTER MID CCOIL WATER INLET,Water,1
 Node,193,AIRLOOP DATACENTER MID CCOIL WATER OUTLET,Water,1
 Node,194,AIRLOOP DATACENTER MID HCOIL WATER INLET,Water,1
 Node,195,AIRLOOP DATACENTER MID HCOIL WATER OUTLET,Water,1
 Node,196,AIRLOOP DATACENTER MID SUPPLY EQUIPMENT INLET NODE,Air,3
 Node,197,AIRLOOP DATACENTER MID MIXED AIR OUTLET,Air,7
 Node,198,AIRLOOP DATACENTER MID SUPPLY EQUIPMENT OUTLET NODE,Air,4
 Node,199,AIRLOOP DATACENTER TOP CCOIL WATER INLET,Water,1
 Node,200,AIRLOOP DATACENTER TOP CCOIL WATER OUTLET,Water,1
 Node,201,AIRLOOP DATACENTER TOP HCOIL WATER INLET,Water,1
 Node,202,AIRLOOP DATACENTER TOP HCOIL WATER OUTLET,Water,1
 Node,203,AIRLOOP DATACENTER TOP SUPPLY EQUIPMENT INLET NODE,Air,3
 Node,204,AIRLOOP DATACENTER TOP MIXED AIR OUTLET,Air,7
 Node,205,AIRLOOP DATACENTER TOP SUPPLY EQUIPMENT OUTLET NODE,Air,4
 Node,206,SWHSYS1 SUPPLY INLET NODE,Water,2
 Node,207,SWHSYS1 PUMP-WATER HEATERNODEVIACONNECTOR,Water,1
 Node,208,SWHSYS1 PUMP-WATER HEATERNODE,Water,1
 Node,209,SWHSYS1 SUPPLY EQUIPMENT OUTLET NODE,Water,1
 Node,210,SWHSYS1 SUPPLY EQUIP BYPASS INLET NODE,Water,1
 Node,211,SWHSYS1 SUPPLY EQUIP BYPASS OUTLET NODE,Water,1
 Node,212,SWHSYS1 SUPPLY MIXER-SWHSYS1 SUPPLY OUTLET PIPE,Water,1
 Node,213,SWHSYS1 SUPPLY OUTLET NODE,Water,4
 Node,214,SWHSYS1 DEMAND INLET NODE,Water,2
 Node,215,SWHSYS1 DEMAND INLET PIPE-SWHSYS1 DEMAND MIXER,Water,1
 Node,216,SWHSYS1 DEMAND BYPASS PIPE INLET NODE,Water,1
 Node,217,SWHSYS1 DEMAND BYPASS PIPE OUTLET NODE,Water,1
 Node,218,SWHSYS1 DEMAND MIXER-SWHSYS1 DEMAND OUTLET PIPE,Water,1
 Node,219,SWHSYS1 DEMAND OUTLET NODE,Water,2
 Node,220,CORE_BOTTOM SUB CAT WATER INLET NODE,Water,1
 Node,221,CORE_BOTTOM SUB CAT WATER OUTLET NODE,Water,1
 Node,222,CORE_MID SUB CAT WATER INLET NODE,Water,1
 Node,223,CORE_MID SUB CAT WATER OUTLET NODE,Water,1
 Node,224,CORE_TOP SUB CAT WATER INLET NODE,Water,1
 Node,225,CORE_TOP SUB CAT WATER OUTLET NODE,Water,1
 Node,226,CORE_BOTTOM AIR NODE,Air,0
 Node,227,CORE_BOTTOM RETURN AIR NODE,Air,1
 Node,228,PERIMETER_BOT_ZN_3 AIR NODE,Air,0
 Node,229,PERIMETER_BOT_ZN_3 RETURN AIR NODE,Air,1
 Node,230,PERIMETER_BOT_ZN_2 AIR NODE,Air,0
 Node,231,PERIMETER_BOT_ZN_2 RETURN AIR NODE,Air,1
 Node,232,PERIMETER_BOT_ZN_1 AIR NODE,Air,0
 Node,233,PERIMETER_BOT_ZN_1 RETURN AIR NODE,Air,1
 Node,234,PERIMETER_BOT_ZN_4 AIR NODE,Air,0
 Node,235,PERIMETER_BOT_ZN_4 RETURN AIR NODE,Air,1
 Node,236,CORE_MID AIR NODE,Air,0
 Node,237,CORE_MID RETURN AIR NODE,Air,1
 Node,238,PERIMETER_MID_ZN_3 AIR NODE,Air,0
 Node,239,PERIMETER_MID_ZN_3 RETURN AIR NODE,Air,1
 Node,240,PERIMETER_MID_ZN_2 AIR NODE,Air,0
 Node,241,PERIMETER_MID_ZN_2 RETURN AIR NODE,Air,1
 Node,242,PERIMETER_MID_ZN_1 AIR NODE,Air,0
 Node,243,PERIMETER_MID_ZN_1 RETURN AIR NODE,Air,1
 Node,244,PERIMETER_MID_ZN_4 AIR NODE,Air,0
 Node,245,PERIMETER_MID_ZN_4 RETURN AIR NODE,Air,1
 Node,246,CORE_TOP AIR NODE,Air,0
 Node,247,CORE_TOP RETURN AIR NODE,Air,1
 Node,248,PERIMETER_TOP_ZN_3 AIR NODE,Air,0
 Node,249,PERIMETER_TOP_ZN_3 RETURN AIR NODE,Air,1
 Node,250,PERIMETER_TOP_ZN_2 AIR NODE,Air,0
 Node,251,PERIMETER_TOP_ZN_2 RETURN AIR NODE,Air,1
 Node,252,PERIMETER_TOP_ZN_1 AIR NODE,Air,0
 Node,253,PERIMETER_TOP_ZN_1 RETURN AIR NODE,Air,1
 Node,254,PERIMETER_TOP_ZN_4 AIR NODE,Air,0
 Node,255,PERIMETER_TOP_ZN_4 RETURN AIR NODE,Air,1
 Node,256,BASEMENT AIR NODE,Air,2
 Node,257,BASEMENT RETURN AIR NODE,Air,1
 Node,258,DATACENTER_BASEMENT_ZN_6 AIR NODE,Air,3
 Node,259,DATACENTER_BASEMENT_ZN_6 RETURN AIR NODE,Air,1
 Node,260,DATACENTER_BOT_ZN_6 AIR NODE,Air,2
 Node,261,DATACENTER_BOT_ZN_6 RETURN AIR NODE,Air,1
 Node,262,DATACENTER_MID_ZN_6 AIR NODE,Air,2
 Node,263,DATACENTER_MID_ZN_6 RETURN AIR NODE,Air,1
 Node,264,DATACENTER_TOP_ZN_6 AIR NODE,Air,2
 Node,265,DATACENTER_TOP_ZN_6 RETURN AIR NODE,Air,1
 Node,266,VAV_BOT WITH REHEAT ZONE EQUIPMENT INLET NODE,Air,2
 Node,267,VAV_MID WITH REHEAT ZONE EQUIPMENT INLET NODE,Air,2
 Node,268,VAV_TOP WITH REHEAT ZONE EQUIPMENT INLET NODE,Air,2
 Node,269,CAV_BAS ZONE EQUIPMENT INLET NODE,Air,5
 Node,270,AIRLOOP DATACENTER BASEMENT ZONE EQUIPMENT INLET NODE,Air,4
 Node,271,AIRLOOP DATACENTER BOT ZONE EQUIPMENT INLET NODE,Air,4
 Node,272,AIRLOOP DATACENTER MID ZONE EQUIPMENT INLET NODE,Air,4
 Node,273,AIRLOOP DATACENTER TOP ZONE EQUIPMENT INLET NODE,Air,4
 Node,274,VAV_BOT WITH REHEAT ZONE EQUIPMENT OUTLET NODE,Air,2
 Node,275,VAV_MID WITH REHEAT ZONE EQUIPMENT OUTLET NODE,Air,2
 Node,276,VAV_TOP WITH REHEAT ZONE EQUIPMENT OUTLET NODE,Air,2
 Node,277,CAV_BAS ZONE EQUIPMENT OUTLET NODE,Air,2
 Node,278,AIRLOOP DATACENTER BASEMENT ZONE EQUIPMENT OUTLET NODE,Air,2
 Node,279,AIRLOOP DATACENTER BOT ZONE EQUIPMENT OUTLET NODE,Air,2
 Node,280,AIRLOOP DATACENTER MID ZONE EQUIPMENT OUTLET NODE,Air,2
 Node,281,AIRLOOP DATACENTER TOP ZONE EQUIPMENT OUTLET NODE,Air,2
 Node,282,COMMON OSA INLET NODE,Air,4
 Node,283,TOWERWATERSYS COOLTOWER OA REF NODE,Air,0
 Node,284,CENTRAL TOWER OUTDOOR AIR INLET NODE,Air,0
 Node,285,VAV_BOT WITH REHEAT_COOLC COND OA NODE,Air,0
 Node,286,VAV_BOT WITH REHEAT_COOLCOA REF NODE,Air,0
 Node,287,VAV_MID WITH REHEAT_COOLC COND OA NODE,Air,0
 Node,288,VAV_MID WITH REHEAT_COOLCOA REF NODE,Air,0
 Node,289,VAV_TOP WITH REHEAT_COOLC COND OA NODE,Air,0
 Node,290,VAV_TOP WITH REHEAT_COOLCOA REF NODE,Air,0
 Node,291,AIRLOOP DATACENTER BASEMENT SUPPLY FAN OUTLET,Air,2
 Node,292,AIRLOOP DATACENTER BOT SUPPLY FAN OUTLET,Air,2
 Node,293,AIRLOOP DATACENTER MID SUPPLY FAN OUTLET,Air,2
 Node,294,AIRLOOP DATACENTER TOP SUPPLY FAN OUTLET,Air,2
 Node,295,CORE_BOTTOM VAV BOX INLET NODE,Air,1
 Node,296,PERIMETER_BOT_ZN_3 VAV BOX INLET NODE,Air,1
 Node,297,PERIMETER_BOT_ZN_2 VAV BOX INLET NODE,Air,1
 Node,298,PERIMETER_BOT_ZN_1 VAV BOX INLET NODE,Air,1
 Node,299,PERIMETER_BOT_ZN_4 VAV BOX INLET NODE,Air,1
 Node,300,CORE_MID VAV BOX INLET NODE,Air,1
 Node,301,PERIMETER_MID_ZN_3 VAV BOX INLET NODE,Air,1
 Node,302,PERIMETER_MID_ZN_2 VAV BOX INLET NODE,Air,1
 Node,303,PERIMETER_MID_ZN_1 VAV BOX INLET NODE,Air,1
 Node,304,PERIMETER_MID_ZN_4 VAV BOX INLET NODE,Air,1
 Node,305,CORE_TOP VAV BOX INLET NODE,Air,1
 Node,306,PERIMETER_TOP_ZN_3 VAV BOX INLET NODE,Air,1
 Node,307,PERIMETER_TOP_ZN_2 VAV BOX INLET NODE,Air,1
 Node,308,PERIMETER_TOP_ZN_1 VAV BOX INLET NODE,Air,1
 Node,309,PERIMETER_TOP_ZN_4 VAV BOX INLET NODE,Air,1
 Node,310,BASEMENT ADU INLET NODE,Air,1
 Node,311,DATACENTER_BASEMENT_ZN_6 ADU INLET NODE,Air,1
 Node,312,DATACENTER_BOT_ZN_6 ADU INLET NODE,Air,1
 Node,313,DATACENTER_MID_ZN_6 ADU INLET NODE,Air,1
 Node,314,DATACENTER_TOP_ZN_6 ADU INLET NODE,Air,1
 Node,315,CORE_BOTTOM VAV BOX DAMPER NODE,Air,1
 Node,316,PERIMETER_BOT_ZN_3 VAV BOX DAMPER NODE,Air,1
 Node,317,PERIMETER_BOT_ZN_2 VAV BOX DAMPER NODE,Air,1
 Node,318,PERIMETER_BOT_ZN_1 VAV BOX DAMPER NODE,Air,1
 Node,319,PERIMETER_BOT_ZN_4 VAV BOX DAMPER NODE,Air,1
 Node,320,CORE_MID VAV BOX DAMPER NODE,Air,1
 Node,321,PERIMETER_MID_ZN_3 VAV BOX DAMPER NODE,Air,1
 Node,322,PERIMETER_MID_ZN_2 VAV BOX DAMPER NODE,Air,1
 Node,323,PERIMETER_MID_ZN_1 VAV BOX DAMPER NODE,Air,1
 Node,324,PERIMETER_MID_ZN_4 VAV BOX DAMPER NODE,Air,1
 Node,325,CORE_TOP VAV BOX DAMPER NODE,Air,1
 Node,326,PERIMETER_TOP_ZN_3 VAV BOX DAMPER NODE,Air,1
 Node,327,PERIMETER_TOP_ZN_2 VAV BOX DAMPER NODE,Air,1
 Node,328,PERIMETER_TOP_ZN_1 VAV BOX DAMPER NODE,Air,1
 Node,329,PERIMETER_TOP_ZN_4 VAV BOX DAMPER NODE,Air,1
 Node,330,GROUNDFLOOR_PLENUM_NODE,Air,0
 Node,331,GROUNDFLOOR_PLENUM OUTLET NODE,Air,1
 Node,332,MIDFLOOR_PLENUM_NODE,Air,0
 Node,333,MIDFLOOR_PLENUM OUTLET NODE,Air,1
 Node,334,TOPFLOOR_PLENUM_NODE,Air,0
 Node,335,TOPFLOOR_PLENUM OUTLET NODE,Air,1
 Node,336,VAV_BOT WITH REHEAT_OARELIEF NODE,Air,1
 Node,337,VAV_MID WITH REHEAT_OARELIEF NODE,Air,1
 Node,338,VAV_TOP WITH REHEAT_OARELIEF NODE,Air,1
 Node,339,CAV_BAS OARELIEF NODE,Air,1
 Node,340,AIRLOOP DATACENTER BASEMENT OARELIEF NODE,Air,1
 Node,341,AIRLOOP DATACENTER BOT OARELIEF NODE,Air,1
 Node,342,AIRLOOP DATACENTER MID OARELIEF NODE,Air,1
 Node,343,AIRLOOP DATACENTER TOP OARELIEF NODE,Air,1
 Node,344,AIRLOOP DATACENTER BASEMENT COOLING COIL OUTLET,Air,1
 Node,345,AIRLOOP DATACENTER BOT COOLING COIL OUTLET,Air,1
 Node,346,AIRLOOP DATACENTER MID COOLING COIL OUTLET,Air,1
 Node,347,AIRLOOP DATACENTER TOP COOLING COIL OUTLET,Air,1
 Node,348,AIRLOOP DATACENTER BASEMENT HEATING COIL OUTLET,Air,1
 Node,349,AIRLOOP DATACENTER BOT HEATING COIL OUTLET,Air,1
 Node,350,AIRLOOP DATACENTER MID HEATING COIL OUTLET,Air,1
 Node,351,AIRLOOP DATACENTER TOP HEATING COIL OUTLET,Air,1
! ===============================================================
! Suspicious nodes have 0 references.  It is normal for some nodes, however.
! Listing nodes with 0 references (culled from previous list):
! <Suspicious Node>,<NodeNumber>,<Node Name>,<Node Fluid Type>,<# Times Node Referenced After Definition>
 Suspicious Node,226,CORE_BOTTOM AIR NODE,Air,0
 Suspicious Node,228,PERIMETER_BOT_ZN_3 AIR NODE,Air,0
 Suspicious Node,230,PERIMETER_BOT_ZN_2 AIR NODE,Air,0
 Suspicious Node,232,PERIMETER_BOT_ZN_1 AIR NODE,Air,0
 Suspicious Node,234,PERIMETER_BOT_ZN_4 AIR NODE,Air,0
 Suspicious Node,236,CORE_MID AIR NODE,Air,0
 Suspicious Node,238,PERIMETER_MID_ZN_3 AIR NODE,Air,0
 Suspicious Node,240,PERIMETER_MID_ZN_2 AIR NODE,Air,0
 Suspicious Node,242,PERIMETER_MID_ZN_1 AIR NODE,Air,0
 Suspicious Node,244,PERIMETER_MID_ZN_4 AIR NODE,Air,0
 Suspicious Node,246,CORE_TOP AIR NODE,Air,0
 Suspicious Node,248,PERIMETER_TOP_ZN_3 AIR NODE,Air,0
 Suspicious Node,250,PERIMETER_TOP_ZN_2 AIR NODE,Air,0
 Suspicious Node,252,PERIMETER_TOP_ZN_1 AIR NODE,Air,0
 Suspicious Node,254,PERIMETER_TOP_ZN_4 AIR NODE,Air,0
 Suspicious Node,283,TOWERWATERSYS COOLTOWER OA REF NODE,Air,0
 Suspicious Node,284,CENTRAL TOWER OUTDOOR AIR INLET NODE,Air,0
 Suspicious Node,285,VAV_BOT WITH REHEAT_COOLC COND OA NODE,Air,0
 Suspicious Node,286,VAV_BOT WITH REHEAT_COOLCOA REF NODE,Air,0
 Suspicious Node,287,VAV_MID WITH REHEAT_COOLC COND OA NODE,Air,0
 Suspicious Node,288,VAV_MID WITH REHEAT_COOLCOA REF NODE,Air,0
 Suspicious Node,289,VAV_TOP WITH REHEAT_COOLC COND OA NODE,Air,0
 Suspicious Node,290,VAV_TOP WITH REHEAT_COOLCOA REF NODE,Air,0
 Suspicious Node,330,GROUNDFLOOR_PLENUM_NODE,Air,0
 Suspicious Node,332,MIDFLOOR_PLENUM_NODE,Air,0
 Suspicious Node,334,TOPFLOOR_PLENUM_NODE,Air,0
! ===============================================================
! <#Branch Lists>,<Number of Branch Lists>
 #Branch Lists,20
! <Branch List>,<Branch List Count>,<Branch List Name>,<Loop Name>,<Loop Type>,<Number of Branches>
! <Branch>,<Branch Count>,<Branch Name>,<Loop Name>,<Loop Type>,<Branch Inlet Node Name>,<Branch Outlet Node Name>
 Branch List,1,HEATSYS1 SUPPLY BRANCHES,HEATSYS1,Plant Supply,4
   Branch,1,HEATSYS1 SUPPLY INLET BRANCH,HEATSYS1,Plant Supply,HEATSYS1 SUPPLY INLET NODE,HEATSYS1 PUMP-HEATSYS1 BOILERNODEVIACONNECTOR
   Branch,2,HEATSYS1 SUPPLY EQUIPMENT BRANCH,HEATSYS1,Plant Supply,HEATSYS1 PUMP-HEATSYS1 BOILERNODE,HEATSYS1 SUPPLY EQUIPMENT OUTLET NODE
   Branch,3,HEATSYS1 SUPPLY EQUIPMENT BYPASS BRANCH,HEATSYS1,Plant Supply,HEATSYS1 SUPPLY EQUIP BYPASS INLET NODE,HEATSYS1 SUPPLY EQUIP BYPASS OUTLET NODE
   Branch,4,HEATSYS1 SUPPLY OUTLET BRANCH,HEATSYS1,Plant Supply,HEATSYS1 SUPPLY MIXER-HEATSYS1 SUPPLY OUTLET PIPE,HEATSYS1 SUPPLY OUTLET NODE
 Branch List,2,HEATSYS1 DEMAND BRANCHES,HEATSYS1,Plant Demand,22
   Branch,1,HEATSYS1 DEMAND INLET BRANCH,HEATSYS1,Plant Demand,HEATSYS1 DEMAND INLET NODE,HEATSYS1 DEMAND INLET PIPE-HEATSYS1 DEMAND MIXER
   Branch,2,HEATSYS1 CORE_BOTTOM DEMAND LOAD BRANCH,HEATSYS1,Plant Demand,CORE_BOTTOM HCOIL WATER INLET,CORE_BOTTOM HCOIL WATER OUTLET
   Branch,3,HEATSYS1 PERIMETER_BOT_ZN_3 DEMAND LOAD BRANCH,HEATSYS1,Plant Demand,PERIMETER_BOT_ZN_3 HCOIL WATER INLET,PERIMETER_BOT_ZN_3 HCOIL WATER OUTLET
   Branch,4,HEATSYS1 PERIMETER_BOT_ZN_2 DEMAND LOAD BRANCH,HEATSYS1,Plant Demand,PERIMETER_BOT_ZN_2 HCOIL WATER INLET,PERIMETER_BOT_ZN_2 HCOIL WATER OUTLET
   Branch,5,HEATSYS1 PERIMETER_BOT_ZN_1 DEMAND LOAD BRANCH,HEATSYS1,Plant Demand,PERIMETER_BOT_ZN_1 HCOIL WATER INLET,PERIMETER_BOT_ZN_1 HCOIL WATER OUTLET
   Branch,6,HEATSYS1 PERIMETER_BOT_ZN_4 DEMAND LOAD BRANCH,HEATSYS1,Plant Demand,PERIMETER_BOT_ZN_4 HCOIL WATER INLET,PERIMETER_BOT_ZN_4 HCOIL WATER OUTLET
   Branch,7,HEATSYS1 CORE_MID DEMAND LOAD BRANCH,HEATSYS1,Plant Demand,CORE_MID HCOIL WATER INLET,CORE_MID HCOIL WATER OUTLET
   Branch,8,HEATSYS1 PERIMETER_MID_ZN_3 DEMAND LOAD BRANCH,HEATSYS1,Plant Demand,PERIMETER_MID_ZN_3 HCOIL WATER INLET,PERIMETER_MID_ZN_3 HCOIL WATER OUTLET
   Branch,9,HEATSYS1 PERIMETER_MID_ZN_2 DEMAND LOAD BRANCH,HEATSYS1,Plant Demand,PERIMETER_MID_ZN_2 HCOIL WATER INLET,PERIMETER_MID_ZN_2 HCOIL WATER OUTLET
   Branch,10,HEATSYS1 PERIMETER_MID_ZN_1 DEMAND LOAD BRANCH,HEATSYS1,Plant Demand,PERIMETER_MID_ZN_1 HCOIL WATER INLET,PERIMETER_MID_ZN_1 HCOIL WATER OUTLET
   Branch,11,HEATSYS1 PERIMETER_MID_ZN_4 DEMAND LOAD BRANCH,HEATSYS1,Plant Demand,PERIMETER_MID_ZN_4 HCOIL WATER INLET,PERIMETER_MID_ZN_4 HCOIL WATER OUTLET
   Branch,12,HEATSYS1 CORE_TOP DEMAND LOAD BRANCH,HEATSYS1,Plant Demand,CORE_TOP HCOIL WATER INLET,CORE_TOP HCOIL WATER OUTLET
   Branch,13,HEATSYS1 PERIMETER_TOP_ZN_3 DEMAND LOAD BRANCH,HEATSYS1,Plant Demand,PERIMETER_TOP_ZN_3 HCOIL WATER INLET,PERIMETER_TOP_ZN_3 HCOIL WATER OUTLET
   Branch,14,HEATSYS1 PERIMETER_TOP_ZN_2 DEMAND LOAD BRANCH,HEATSYS1,Plant Demand,PERIMETER_TOP_ZN_2 HCOIL WATER INLET,PERIMETER_TOP_ZN_2 HCOIL WATER OUTLET
   Branch,15,HEATSYS1 PERIMETER_TOP_ZN_1 DEMAND LOAD BRANCH,HEATSYS1,Plant Demand,PERIMETER_TOP_ZN_1 HCOIL WATER INLET,PERIMETER_TOP_ZN_1 HCOIL WATER OUTLET
   Branch,16,HEATSYS1 PERIMETER_TOP_ZN_4 DEMAND LOAD BRANCH,HEATSYS1,Plant Demand,PERIMETER_TOP_ZN_4 HCOIL WATER INLET,PERIMETER_TOP_ZN_4 HCOIL WATER OUTLET
   Branch,17,HEATSYS1 BASEMENT DEMAND LOAD BRANCH,HEATSYS1,Plant Demand,CAV_BAS HCOIL WATER INLET,CAV_BAS HCOIL WATER OUTLET
   Branch,18,HEATSYS1 VAV_BOT WITH REHEAT DEMAND LOAD BRANCH,HEATSYS1,Plant Demand,VAV_BOT WITH REHEAT HCOIL WATER INLET,VAV_BOT WITH REHEAT HCOIL WATER OUTLET
   Branch,19,HEATSYS1 VAV_MID WITH REHEAT DEMAND LOAD BRANCH,HEATSYS1,Plant Demand,VAV_MID WITH REHEAT HCOIL WATER INLET,VAV_MID WITH REHEAT HCOIL WATER OUTLET
   Branch,20,HEATSYS1 VAV_TOP WITH REHEAT DEMAND LOAD BRANCH,HEATSYS1,Plant Demand,VAV_TOP WITH REHEAT HCOIL WATER INLET,VAV_TOP WITH REHEAT HCOIL WATER OUTLET
   Branch,21,HEATSYS1 DEMAND BYPASS BRANCH,HEATSYS1,Plant Demand,HEATSYS1 DEMAND BYPASS PIPE INLET NODE,HEATSYS1 DEMAND BYPASS PIPE OUTLET NODE
   Branch,22,HEATSYS1 DEMAND OUTLET BRANCH,HEATSYS1,Plant Demand,HEATSYS1 DEMAND MIXER-HEATSYS1 DEMAND OUTLET PIPE,HEATSYS1 DEMAND OUTLET NODE
 Branch List,3,COOLSYS1 SUPPLY SUPPLY SIDE BRANCHES,COOLSYS1_SUPPLY,Plant Supply,5
   Branch,1,COOLSYS1 SUPPLY INLET BRANCH,COOLSYS1_SUPPLY,Plant Supply,COOLSYS1 SUPPLY INLET NODE,COOLSYS1 PUMP-COOLSYS1 CHILLERNODEVIACONNECTOR
   Branch,2,COOLSYS1 SUPPLY EQUIPMENT BRANCH 1,COOLSYS1_SUPPLY,Plant Supply,COOLSYS1 CHILLER1 PUMP INLET NODE,COOLSYS1 SUPPLY EQUIPMENT OUTLET NODE 1
   Branch,3,COOLSYS1 SUPPLY EQUIPMENT BRANCH 2,COOLSYS1_SUPPLY,Plant Supply,COOLSYS1 CHILLER2 PUMP INLET NODE,COOLSYS1 SUPPLY EQUIPMENT OUTLET NODE 2
   Branch,4,COOLSYS1 SUPPLY EQUIPMENT BYPASS BRANCH,COOLSYS1_SUPPLY,Plant Supply,COOLSYS1 SUPPLY EQUIP BYPASS INLET NODE,COOLSYS1 SUPPLY EQUIP BYPASS OUTLET NODE
   Branch,5,COOLSYS1 SUPPLY OUTLET BRANCH,COOLSYS1_SUPPLY,Plant Supply,COOLSYS1 SUPPLY MIXER-COOLSYS1 SUPPLY OUTLET PIPE,COOLSYS1 SUPPLY OUTLET NODE
 Branch List,4,COOLSYS1 DEMAND DEMAND SIDE BRANCHES,COOLSYS1_DEMAND,Plant Demand,6
   Branch,1,COOLSYS1 DEMAND INLET BRANCH,COOLSYS1_DEMAND,Plant Demand,COOLSYS1 DEMAND INLET NODE,COOLSYS1 PUMP SECONDARY-COOLSYS1 DEMAND MIXER
   Branch,2,COOLSYS1 BASEMENT DEMAND LOAD BRANCH,COOLSYS1_DEMAND,Plant Demand,CAV_BAS CCOIL WATER INLET,CAV_BAS CCOIL WATER OUTLET
   Branch,3,COOLSYS1 VAV_BOT WITH REHEAT DEMAND LOAD BRANCH,COOLSYS1_DEMAND,Plant Demand,VAV_BOT WITH REHEAT CCOIL WATER INLET,VAV_BOT WITH REHEAT CCOIL WATER OUTLET
   Branch,4,COOLSYS1 VAV_MID WITH REHEAT DEMAND LOAD BRANCH,COOLSYS1_DEMAND,Plant Demand,VAV_MID WITH REHEAT CCOIL WATER INLET,VAV_MID WITH REHEAT CCOIL WATER OUTLET
   Branch,5,COOLSYS1 VAV_TOP WITH REHEAT DEMAND LOAD BRANCH,COOLSYS1_DEMAND,Plant Demand,VAV_TOP WITH REHEAT CCOIL WATER INLET,VAV_TOP WITH REHEAT CCOIL WATER OUTLET
   Branch,6,COOLSYS1 DEMAND OUTLET BRANCH,COOLSYS1_DEMAND,Plant Demand,COOLSYS1 DEMAND MIXER-COOLSYS1 DEMAND OUTLET PIPE,COOLSYS1 DEMAND OUTLET NODE
 Branch List,5,COOLSYS1 SUPPLY DEMAND SIDE BRANCHES,COOLSYS1_SUPPLY,Plant Demand,4
   Branch,1,COOLSYS1 SUPPLY DEMAND SIDE INLET BRANCH,COOLSYS1_SUPPLY,Plant Demand,COOLSYS1 SUPPLY DEMAND SIDE INLET PIPE INLET NODE,COOLSYS1 SUPPLY DEMAND SIDE INLET PIPE OUTLET NODE
   Branch,2,COOLSYS1 HEAT EXCHANGER SUPPLY BRANCH,COOLSYS1_SUPPLY,Plant Demand,COOLSYS1 EXCHANGER  SUPPLY INLET NODE,COOLSYS1 EXCHANGER  SUPPLY OUTLET NODE
   Branch,3,COOLSYS1 SUPPLY SIDE BYPASS,COOLSYS1_SUPPLY,Plant Demand,COOLSYS1 SUPPLY BYPASS INLET NODE,COOLSYS1 SUPPLY BYPASS OUTLET NODE
   Branch,4,COOLSYS1 SUPPLY DEMAND SIDE OUTLET BRANCH,COOLSYS1_SUPPLY,Plant Demand,COOLSYS1 SUPPLY DEMAND SIDE OUTLET PIPE INLET NODE,COOLSYS1 SUPPLY DEMAND SIDE OUTLET PIPE OUTLET NODE
 Branch List,6,COOLSYS1 DEMAND SUPPLY SIDE BRANCHES,COOLSYS1_DEMAND,Plant Supply,4
   Branch,1,COOLSYS1 DEMAND SUPPLY SIDE INLET BRANCH,COOLSYS1_DEMAND,Plant Supply,COOLSYS1 DEMAND SUPPLY SIDE INLET PIPE INLET NODE,COOLSYS1 DEMAND SUPPLY SIDE INLET PIPE OUTLET NODE
   Branch,2,COOLSYS1 HEAT EXCHANGER DEMAND BRANCH,COOLSYS1_DEMAND,Plant Supply,COOLSYS1 EXCHANGER  DEMAND INLET NODE,COOLSYS1 EXCHANGER  DEMAND OUTLET NODE
   Branch,3,COOLSYS1 DEMAND SIDE BYPASS,COOLSYS1_DEMAND,Plant Supply,COOLSYS1 DEMAND BYPASS INLET NODE,COOLSYS1 DEMAND BYPASS OUTLET NODE
   Branch,4,COOLSYS1 DEMAND SUPPLY SIDE OUTLET BRANCH,COOLSYS1_DEMAND,Plant Supply,COOLSYS1 DEMAND SUPPLY SIDE OUTLET PIPE INLET NODE,COOLSYS1 DEMAND SUPPLY SIDE OUTLET PIPE OUTLET NODE
 Branch List,7,TOWERWATERSYS SUPPLY BRANCHES,TOWERWATERSYS,Condenser Supply,5
   Branch,1,TOWERWATERSYS SUPPLY INLET BRANCH,TOWERWATERSYS,Condenser Supply,TOWERWATERSYS SUPPLY INLET NODE,TOWERWATERSYS PUMP-TOWERWATERSYS COOLTOWERNODEVIACONNECTOR
   Branch,2,TOWERWATERSYS SUPPLY EQUIPMENT BRANCH 1,TOWERWATERSYS,Condenser Supply,TOWERWATERSYS PUMP-TOWERWATERSYS COOLTOWER1NODE,TOWERWATERSYS SUPPLY EQUIPMENT OUTLET NODE 1
   Branch,3,TOWERWATERSYS SUPPLY EQUIPMENT BRANCH 2,TOWERWATERSYS,Condenser Supply,TOWERWATERSYS PUMP-TOWERWATERSYS COOLTOWER2NODE,TOWERWATERSYS SUPPLY EQUIPMENT OUTLET NODE 2
   Branch,4,TOWERWATERSYS SUPPLY EQUIPMENT BYPASS BRANCH,TOWERWATERSYS,Condenser Supply,TOWERWATERSYS SUPPLY EQUIP BYPASS INLET NODE,TOWERWATERSYS SUPPLY EQUIP BYPASS OUTLET NODE
   Branch,5,TOWERWATERSYS SUPPLY OUTLET BRANCH,TOWERWATERSYS,Condenser Supply,TOWERWATERSYS SUPPLY MIXER-TOWERWATERSYS SUPPLY OUTLET PIPE,TOWERWATERSYS SUPPLY OUTLET NODE
 Branch List,8,TOWERWATERSYS DEMAND BRANCHES,TOWERWATERSYS,Condenser Demand,5
   Branch,1,TOWERWATERSYS DEMAND INLET BRANCH,TOWERWATERSYS,Condenser Demand,TOWERWATERSYS DEMAND INLET NODE,TOWERWATERSYS DEMAND INLET PIPE-TOWERWATERSYS DEMAND MIXER
   Branch,2,TOWERWATERSYS DEMAND LOAD BRANCH 1,TOWERWATERSYS,Condenser Demand,COOLSYS1 CHILLER1 WATER INLET NODE,COOLSYS1 CHILLER1 WATER OUTLET NODE
   Branch,3,TOWERWATERSYS DEMAND LOAD BRANCH 2,TOWERWATERSYS,Condenser Demand,COOLSYS1 CHILLER2 WATER INLET NODE,COOLSYS1 CHILLER2 WATER OUTLET NODE
   Branch,4,TOWERWATERSYS DEMAND BYPASS BRANCH,TOWERWATERSYS,Condenser Demand,TOWERWATERSYS DEMAND BYPASS PIPE INLET NODE,TOWERWATERSYS DEMAND BYPASS PIPE OUTLET NODE
   Branch,5,TOWERWATERSYS DEMAND OUTLET BRANCH,TOWERWATERSYS,Condenser Demand,TOWERWATERSYS DEMAND MIXER-TOWERWATERSYS DEMAND OUTLET PIPE,TOWERWATERSYS DEMAND OUTLET NODE
 Branch List,9,PLANT SUPPLY SIDE BRANCHES,SINGLE WATER PLANT LOOP,Plant Supply,5
   Branch,1,PLANT SUPPLY INLET BRANCH,SINGLE WATER PLANT LOOP,Plant Supply,PLANT SUPPLY INLET NODE,PLANT PUMP OUTLET NODE
   Branch,2,PLANT SUPPLY TOWER BRANCH,SINGLE WATER PLANT LOOP,Plant Supply,CENTRAL TOWER INLET NODE,CENTRAL TOWER OUTLET NODE
   Branch,3,CENTRAL BOILER BRANCH,SINGLE WATER PLANT LOOP,Plant Supply,CENTRAL BOILER INLET NODE,CENTRAL BOILER OUTLET NODE
   Branch,4,PLANT SUPPLY BYPASS BRANCH,SINGLE WATER PLANT LOOP,Plant Supply,PLANT SUPPLY BYPASS INLET NODE,PLANT SUPPLY BYPASS OUTLET NODE
   Branch,5,PLANT SUPPLY OUTLET BRANCH,SINGLE WATER PLANT LOOP,Plant Supply,PLANT SUPPLY EXIT PIPE INLET NODE,PLANT SUPPLY OUTLET NODE
 Branch List,10,PLANT DEMAND SIDE BRANCHES,SINGLE WATER PLANT LOOP,Plant Demand,11
   Branch,1,PLANT DEMAND INLET BRANCH,SINGLE WATER PLANT LOOP,Plant Demand,PLANT DEMAND INLET NODE,PLANT DEMAND ENTRANCE PIPE OUTLET NODE
   Branch,2,WSHP COOLING PLANT BRANCH DATACENTER_BASEMENT_ZN_6,SINGLE WATER PLANT LOOP,Plant Demand,AIRLOOP DATACENTER BASEMENT CCOIL WATER INLET,AIRLOOP DATACENTER BASEMENT CCOIL WATER OUTLET
   Branch,3,WSHP HEATING PLANT BRANCH DATACENTER_BASEMENT_ZN_6,SINGLE WATER PLANT LOOP,Plant Demand,AIRLOOP DATACENTER BASEMENT HCOIL WATER INLET,AIRLOOP DATACENTER BASEMENT HCOIL WATER OUTLET
   Branch,4,WSHP COOLING PLANT BRANCH DATACENTER_BOT_ZN_6,SINGLE WATER PLANT LOOP,Plant Demand,AIRLOOP DATACENTER BOT CCOIL WATER INLET,AIRLOOP DATACENTER BOT CCOIL WATER OUTLET
   Branch,5,WSHP HEATING PLANT BRANCH DATACENTER_BOT_ZN_6,SINGLE WATER PLANT LOOP,Plant Demand,AIRLOOP DATACENTER BOT HCOIL WATER INLET,AIRLOOP DATACENTER BOT HCOIL WATER OUTLET
   Branch,6,WSHP COOLING PLANT BRANCH DATACENTER_MID_ZN_6,SINGLE WATER PLANT LOOP,Plant Demand,AIRLOOP DATACENTER MID CCOIL WATER INLET,AIRLOOP DATACENTER MID CCOIL WATER OUTLET
   Branch,7,WSHP HEATING PLANT BRANCH DATACENTER_MID_ZN_6,SINGLE WATER PLANT LOOP,Plant Demand,AIRLOOP DATACENTER MID HCOIL WATER INLET,AIRLOOP DATACENTER MID HCOIL WATER OUTLET
   Branch,8,WSHP COOLING PLANT BRANCH DATACENTER_TOP_ZN_6,SINGLE WATER PLANT LOOP,Plant Demand,AIRLOOP DATACENTER TOP CCOIL WATER INLET,AIRLOOP DATACENTER TOP CCOIL WATER OUTLET
   Branch,9,WSHP HEATING PLANT BRANCH DATACENTER_TOP_ZN_6,SINGLE WATER PLANT LOOP,Plant Demand,AIRLOOP DATACENTER TOP HCOIL WATER INLET,AIRLOOP DATACENTER TOP HCOIL WATER OUTLET
   Branch,10,PLANT DEMAND BYPASS BRANCH,SINGLE WATER PLANT LOOP,Plant Demand,COND DEMAND BYPASS INLET NODE,COND DEMAND BYPASS OUTLET NODE
   Branch,11,PLANT DEMAND OUTLET BRANCH,SINGLE WATER PLANT LOOP,Plant Demand,PLANT DEMAND EXIT PIPE INLET NODE,PLANT DEMAND OUTLET NODE
 Branch List,11,VAV_BOT WITH REHEAT AIR LOOP BRANCHES,VAV_BOT WITH REHEAT,Air,1
   Branch,1,VAV_BOT WITH REHEAT AIR LOOP MAIN BRANCH,VAV_BOT WITH REHEAT,Air,VAV_BOT WITH REHEAT SUPPLY EQUIPMENT INLET NODE,VAV_BOT WITH REHEAT SUPPLY EQUIPMENT OUTLET NODE
 Branch List,12,VAV_MID WITH REHEAT AIR LOOP BRANCHES,VAV_MID WITH REHEAT,Air,1
   Branch,1,VAV_MID WITH REHEAT AIR LOOP MAIN BRANCH,VAV_MID WITH REHEAT,Air,VAV_MID WITH REHEAT SUPPLY EQUIPMENT INLET NODE,VAV_MID WITH REHEAT SUPPLY EQUIPMENT OUTLET NODE
 Branch List,13,VAV_TOP WITH REHEAT AIR LOOP BRANCHES,VAV_TOP WITH REHEAT,Air,1
   Branch,1,VAV_TOP WITH REHEAT AIR LOOP MAIN BRANCH,VAV_TOP WITH REHEAT,Air,VAV_TOP WITH REHEAT SUPPLY EQUIPMENT INLET NODE,VAV_TOP WITH REHEAT SUPPLY EQUIPMENT OUTLET NODE
 Branch List,14,CAV_BAS AIR LOOP BRANCHES,CAV_BAS,Air,1
   Branch,1,CAV_BAS AIR LOOP MAIN BRANCH,CAV_BAS,Air,CAV_BAS SUPPLY EQUIPMENT INLET NODE,CAV_BAS SUPPLY EQUIPMENT OUTLET NODE
 Branch List,15,AIRLOOP DATACENTER BASEMENT AIR LOOP BRANCHES,AIRLOOP DATACENTER BASEMENT,Air,1
   Branch,1,AIRLOOP DATACENTER BASEMENT AIR LOOP MAIN BRANCH,AIRLOOP DATACENTER BASEMENT,Air,AIRLOOP DATACENTER BASEMENT SUPPLY EQUIPMENT INLET NODE,AIRLOOP DATACENTER BASEMENT SUPPLY EQUIPMENT OUTLET NODE
 Branch List,16,AIRLOOP DATACENTER BOT AIR LOOP BRANCHES,AIRLOOP DATACENTER BOT,Air,1
   Branch,1,AIRLOOP DATACENTER BOT AIR LOOP MAIN BRANCH,AIRLOOP DATACENTER BOT,Air,AIRLOOP DATACENTER BOT SUPPLY EQUIPMENT INLET NODE,AIRLOOP DATACENTER BOT SUPPLY EQUIPMENT OUTLET NODE
 Branch List,17,AIRLOOP DATACENTER MID AIR LOOP BRANCHES,AIRLOOP DATACENTER MID,Air,1
   Branch,1,AIRLOOP DATACENTER MID AIR LOOP MAIN BRANCH,AIRLOOP DATACENTER MID,Air,AIRLOOP DATACENTER MID SUPPLY EQUIPMENT INLET NODE,AIRLOOP DATACENTER MID SUPPLY EQUIPMENT OUTLET NODE
 Branch List,18,AIRLOOP DATACENTER TOP AIR LOOP BRANCHES,AIRLOOP DATACENTER TOP,Air,1
   Branch,1,AIRLOOP DATACENTER TOP AIR LOOP MAIN BRANCH,AIRLOOP DATACENTER TOP,Air,AIRLOOP DATACENTER TOP SUPPLY EQUIPMENT INLET NODE,AIRLOOP DATACENTER TOP SUPPLY EQUIPMENT OUTLET NODE
 Branch List,19,SWHSYS1 SUPPLY BRANCHES,SWHSYS1,Plant Supply,4
   Branch,1,SWHSYS1 SUPPLY INLET BRANCH,SWHSYS1,Plant Supply,SWHSYS1 SUPPLY INLET NODE,SWHSYS1 PUMP-WATER HEATERNODEVIACONNECTOR
   Branch,2,SWHSYS1 SUPPLY EQUIPMENT BRANCH,SWHSYS1,Plant Supply,SWHSYS1 PUMP-WATER HEATERNODE,SWHSYS1 SUPPLY EQUIPMENT OUTLET NODE
   Branch,3,SWHSYS1 SUPPLY EQUIPMENT BYPASS BRANCH,SWHSYS1,Plant Supply,SWHSYS1 SUPPLY EQUIP BYPASS INLET NODE,SWHSYS1 SUPPLY EQUIP BYPASS OUTLET NODE
   Branch,4,SWHSYS1 SUPPLY OUTLET BRANCH,SWHSYS1,Plant Supply,SWHSYS1 SUPPLY MIXER-SWHSYS1 SUPPLY OUTLET PIPE,SWHSYS1 SUPPLY OUTLET NODE
 Branch List,20,SWHSYS1 DEMAND BRANCHES,SWHSYS1,Plant Demand,6
   Branch,1,SWHSYS1 DEMAND INLET BRANCH,SWHSYS1,Plant Demand,SWHSYS1 DEMAND INLET NODE,SWHSYS1 DEMAND INLET PIPE-SWHSYS1 DEMAND MIXER
   Branch,2,SWH DEMAND LOAD BRANCH CORE_BOTTOM SUB CAT,SWHSYS1,Plant Demand,CORE_BOTTOM SUB CAT WATER INLET NODE,CORE_BOTTOM SUB CAT WATER OUTLET NODE
   Branch,3,SWH DEMAND LOAD BRANCH CORE_MID SUB CAT,SWHSYS1,Plant Demand,CORE_MID SUB CAT WATER INLET NODE,CORE_MID SUB CAT WATER OUTLET NODE
   Branch,4,SWH DEMAND LOAD BRANCH CORE_TOP SUB CAT,SWHSYS1,Plant Demand,CORE_TOP SUB CAT WATER INLET NODE,CORE_TOP SUB CAT WATER OUTLET NODE
   Branch,5,SWHSYS1 DEMAND BYPASS BRANCH,SWHSYS1,Plant Demand,SWHSYS1 DEMAND BYPASS PIPE INLET NODE,SWHSYS1 DEMAND BYPASS PIPE OUTLET NODE
   Branch,6,SWHSYS1 DEMAND OUTLET BRANCH,SWHSYS1,Plant Demand,SWHSYS1 DEMAND MIXER-SWHSYS1 DEMAND OUTLET PIPE,SWHSYS1 DEMAND OUTLET NODE
! ===============================================================
! <#Supply Air Paths>,<Number of Supply Air Paths>
 #Supply Air Paths,8
! <Supply Air Path>,<Supply Air Path Count>,<Supply Air Path Name>,<AirLoopHVAC Name>
! <#Components on Supply Air Path>,<Number of Components>
! <Supply Air Path Component>,<Component Count>,<Component Type>,<Component Name>,<AirLoopHVAC Name>
! <#Outlet Nodes on Supply Air Path Component>,<Number of Nodes>
! <Supply Air Path Component Nodes>,<Node Count>,<Component Type>,<Component Name>,<Inlet Node Name>,<Outlet Node Name>,<AirLoopHVAC Name>
 Supply Air Path,1,VAV_BOT WITH REHEAT,VAV_BOT WITH REHEAT
   #Components on Supply Air Path,1
   Supply Air Path Component,1,AIRLOOPHVAC:ZONESPLITTER,VAV_BOT WITH REHEAT SUPPLY AIR SPLITTER,VAV_BOT WITH REHEAT
     #Outlet Nodes on Supply Air Path Component,5
     Supply Air Path Component Nodes,1,AIRLOOPHVAC:ZONESPLITTER,VAV_BOT WITH REHEAT SUPPLY AIR SPLITTER,VAV_BOT WITH REHEAT ZONE EQUIPMENT INLET NODE,CORE_BOTTOM VAV BOX INLET NODE,VAV_BOT WITH REHEAT
     Supply Air Path Component Nodes,2,AIRLOOPHVAC:ZONESPLITTER,VAV_BOT WITH REHEAT SUPPLY AIR SPLITTER,VAV_BOT WITH REHEAT ZONE EQUIPMENT INLET NODE,PERIMETER_BOT_ZN_3 VAV BOX INLET NODE,VAV_BOT WITH REHEAT
     Supply Air Path Component Nodes,3,AIRLOOPHVAC:ZONESPLITTER,VAV_BOT WITH REHEAT SUPPLY AIR SPLITTER,VAV_BOT WITH REHEAT ZONE EQUIPMENT INLET NODE,PERIMETER_BOT_ZN_2 VAV BOX INLET NODE,VAV_BOT WITH REHEAT
     Supply Air Path Component Nodes,4,AIRLOOPHVAC:ZONESPLITTER,VAV_BOT WITH REHEAT SUPPLY AIR SPLITTER,VAV_BOT WITH REHEAT ZONE EQUIPMENT INLET NODE,PERIMETER_BOT_ZN_1 VAV BOX INLET NODE,VAV_BOT WITH REHEAT
     Supply Air Path Component Nodes,5,AIRLOOPHVAC:ZONESPLITTER,VAV_BOT WITH REHEAT SUPPLY AIR SPLITTER,VAV_BOT WITH REHEAT ZONE EQUIPMENT INLET NODE,PERIMETER_BOT_ZN_4 VAV BOX INLET NODE,VAV_BOT WITH REHEAT
! <#Nodes on Supply Air Path>,<Number of Nodes>
! <Supply Air Path Node>,<Node Type>,<Node Count>,<Node Name>,<AirLoopHVAC Name>
#Nodes on Supply Air Path,6
   Supply Air Path Node,Inlet Node,1,VAV_BOT WITH REHEAT ZONE EQUIPMENT INLET NODE,VAV_BOT WITH REHEAT
   Supply Air Path Node,Outlet Node,2,CORE_BOTTOM VAV BOX INLET NODE,VAV_BOT WITH REHEAT
   Supply Air Path Node,Outlet Node,3,PERIMETER_BOT_ZN_3 VAV BOX INLET NODE,VAV_BOT WITH REHEAT
   Supply Air Path Node,Outlet Node,4,PERIMETER_BOT_ZN_2 VAV BOX INLET NODE,VAV_BOT WITH REHEAT
   Supply Air Path Node,Outlet Node,5,PERIMETER_BOT_ZN_1 VAV BOX INLET NODE,VAV_BOT WITH REHEAT
   Supply Air Path Node,Outlet Node,6,PERIMETER_BOT_ZN_4 VAV BOX INLET NODE,VAV_BOT WITH REHEAT
 Supply Air Path,2,VAV_MID WITH REHEAT,VAV_MID WITH REHEAT
   #Components on Supply Air Path,1
   Supply Air Path Component,1,AIRLOOPHVAC:ZONESPLITTER,VAV_MID WITH REHEAT SUPPLY AIR SPLITTER,VAV_MID WITH REHEAT
     #Outlet Nodes on Supply Air Path Component,5
     Supply Air Path Component Nodes,1,AIRLOOPHVAC:ZONESPLITTER,VAV_MID WITH REHEAT SUPPLY AIR SPLITTER,VAV_MID WITH REHEAT ZONE EQUIPMENT INLET NODE,CORE_MID VAV BOX INLET NODE,VAV_MID WITH REHEAT
     Supply Air Path Component Nodes,2,AIRLOOPHVAC:ZONESPLITTER,VAV_MID WITH REHEAT SUPPLY AIR SPLITTER,VAV_MID WITH REHEAT ZONE EQUIPMENT INLET NODE,PERIMETER_MID_ZN_3 VAV BOX INLET NODE,VAV_MID WITH REHEAT
     Supply Air Path Component Nodes,3,AIRLOOPHVAC:ZONESPLITTER,VAV_MID WITH REHEAT SUPPLY AIR SPLITTER,VAV_MID WITH REHEAT ZONE EQUIPMENT INLET NODE,PERIMETER_MID_ZN_2 VAV BOX INLET NODE,VAV_MID WITH REHEAT
     Supply Air Path Component Nodes,4,AIRLOOPHVAC:ZONESPLITTER,VAV_MID WITH REHEAT SUPPLY AIR SPLITTER,VAV_MID WITH REHEAT ZONE EQUIPMENT INLET NODE,PERIMETER_MID_ZN_1 VAV BOX INLET NODE,VAV_MID WITH REHEAT
     Supply Air Path Component Nodes,5,AIRLOOPHVAC:ZONESPLITTER,VAV_MID WITH REHEAT SUPPLY AIR SPLITTER,VAV_MID WITH REHEAT ZONE EQUIPMENT INLET NODE,PERIMETER_MID_ZN_4 VAV BOX INLET NODE,VAV_MID WITH REHEAT
! <#Nodes on Supply Air Path>,<Number of Nodes>
! <Supply Air Path Node>,<Node Type>,<Node Count>,<Node Name>,<AirLoopHVAC Name>
#Nodes on Supply Air Path,6
   Supply Air Path Node,Inlet Node,1,VAV_MID WITH REHEAT ZONE EQUIPMENT INLET NODE,VAV_MID WITH REHEAT
   Supply Air Path Node,Outlet Node,2,CORE_MID VAV BOX INLET NODE,VAV_MID WITH REHEAT
   Supply Air Path Node,Outlet Node,3,PERIMETER_MID_ZN_3 VAV BOX INLET NODE,VAV_MID WITH REHEAT
   Supply Air Path Node,Outlet Node,4,PERIMETER_MID_ZN_2 VAV BOX INLET NODE,VAV_MID WITH REHEAT
   Supply Air Path Node,Outlet Node,5,PERIMETER_MID_ZN_1 VAV BOX INLET NODE,VAV_MID WITH REHEAT
   Supply Air Path Node,Outlet Node,6,PERIMETER_MID_ZN_4 VAV BOX INLET NODE,VAV_MID WITH REHEAT
 Supply Air Path,3,VAV_TOP WITH REHEAT,VAV_TOP WITH REHEAT
   #Components on Supply Air Path,1
   Supply Air Path Component,1,AIRLOOPHVAC:ZONESPLITTER,VAV_TOP WITH REHEAT SUPPLY AIR SPLITTER,VAV_TOP WITH REHEAT
     #Outlet Nodes on Supply Air Path Component,5
     Supply Air Path Component Nodes,1,AIRLOOPHVAC:ZONESPLITTER,VAV_TOP WITH REHEAT SUPPLY AIR SPLITTER,VAV_TOP WITH REHEAT ZONE EQUIPMENT INLET NODE,CORE_TOP VAV BOX INLET NODE,VAV_TOP WITH REHEAT
     Supply Air Path Component Nodes,2,AIRLOOPHVAC:ZONESPLITTER,VAV_TOP WITH REHEAT SUPPLY AIR SPLITTER,VAV_TOP WITH REHEAT ZONE EQUIPMENT INLET NODE,PERIMETER_TOP_ZN_3 VAV BOX INLET NODE,VAV_TOP WITH REHEAT
     Supply Air Path Component Nodes,3,AIRLOOPHVAC:ZONESPLITTER,VAV_TOP WITH REHEAT SUPPLY AIR SPLITTER,VAV_TOP WITH REHEAT ZONE EQUIPMENT INLET NODE,PERIMETER_TOP_ZN_2 VAV BOX INLET NODE,VAV_TOP WITH REHEAT
     Supply Air Path Component Nodes,4,AIRLOOPHVAC:ZONESPLITTER,VAV_TOP WITH REHEAT SUPPLY AIR SPLITTER,VAV_TOP WITH REHEAT ZONE EQUIPMENT INLET NODE,PERIMETER_TOP_ZN_1 VAV BOX INLET NODE,VAV_TOP WITH REHEAT
     Supply Air Path Component Nodes,5,AIRLOOPHVAC:ZONESPLITTER,VAV_TOP WITH REHEAT SUPPLY AIR SPLITTER,VAV_TOP WITH REHEAT ZONE EQUIPMENT INLET NODE,PERIMETER_TOP_ZN_4 VAV BOX INLET NODE,VAV_TOP WITH REHEAT
! <#Nodes on Supply Air Path>,<Number of Nodes>
! <Supply Air Path Node>,<Node Type>,<Node Count>,<Node Name>,<AirLoopHVAC Name>
#Nodes on Supply Air Path,6
   Supply Air Path Node,Inlet Node,1,VAV_TOP WITH REHEAT ZONE EQUIPMENT INLET NODE,VAV_TOP WITH REHEAT
   Supply Air Path Node,Outlet Node,2,CORE_TOP VAV BOX INLET NODE,VAV_TOP WITH REHEAT
   Supply Air Path Node,Outlet Node,3,PERIMETER_TOP_ZN_3 VAV BOX INLET NODE,VAV_TOP WITH REHEAT
   Supply Air Path Node,Outlet Node,4,PERIMETER_TOP_ZN_2 VAV BOX INLET NODE,VAV_TOP WITH REHEAT
   Supply Air Path Node,Outlet Node,5,PERIMETER_TOP_ZN_1 VAV BOX INLET NODE,VAV_TOP WITH REHEAT
   Supply Air Path Node,Outlet Node,6,PERIMETER_TOP_ZN_4 VAV BOX INLET NODE,VAV_TOP WITH REHEAT
 Supply Air Path,4,CAV_BAS,CAV_BAS
   #Components on Supply Air Path,1
   Supply Air Path Component,1,AIRLOOPHVAC:ZONESPLITTER,CAV_BAS SUPPLY AIR SPLITTER,CAV_BAS
     #Outlet Nodes on Supply Air Path Component,1
     Supply Air Path Component Nodes,1,AIRLOOPHVAC:ZONESPLITTER,CAV_BAS SUPPLY AIR SPLITTER,CAV_BAS ZONE EQUIPMENT INLET NODE,BASEMENT ADU INLET NODE,CAV_BAS
! <#Nodes on Supply Air Path>,<Number of Nodes>
! <Supply Air Path Node>,<Node Type>,<Node Count>,<Node Name>,<AirLoopHVAC Name>
#Nodes on Supply Air Path,2
   Supply Air Path Node,Inlet Node,1,CAV_BAS ZONE EQUIPMENT INLET NODE,CAV_BAS
   Supply Air Path Node,Outlet Node,2,BASEMENT ADU INLET NODE,CAV_BAS
 Supply Air Path,5,AIRLOOP DATACENTER BASEMENT,AIRLOOP DATACENTER BASEMENT
   #Components on Supply Air Path,1
   Supply Air Path Component,1,AIRLOOPHVAC:ZONESPLITTER,AIRLOOP DATACENTER BASEMENT SUPPLY AIR SPLITTER,AIRLOOP DATACENTER BASEMENT
     #Outlet Nodes on Supply Air Path Component,1
     Supply Air Path Component Nodes,1,AIRLOOPHVAC:ZONESPLITTER,AIRLOOP DATACENTER BASEMENT SUPPLY AIR SPLITTER,AIRLOOP DATACENTER BASEMENT ZONE EQUIPMENT INLET NODE,DATACENTER_BASEMENT_ZN_6 ADU INLET NODE,AIRLOOP DATACENTER BASEMENT
! <#Nodes on Supply Air Path>,<Number of Nodes>
! <Supply Air Path Node>,<Node Type>,<Node Count>,<Node Name>,<AirLoopHVAC Name>
#Nodes on Supply Air Path,2
   Supply Air Path Node,Inlet Node,1,AIRLOOP DATACENTER BASEMENT ZONE EQUIPMENT INLET NODE,AIRLOOP DATACENTER BASEMENT
   Supply Air Path Node,Outlet Node,2,DATACENTER_BASEMENT_ZN_6 ADU INLET NODE,AIRLOOP DATACENTER BASEMENT
 Supply Air Path,6,AIRLOOP DATACENTER BOT,AIRLOOP DATACENTER BOT
   #Components on Supply Air Path,1
   Supply Air Path Component,1,AIRLOOPHVAC:ZONESPLITTER,AIRLOOP DATACENTER BOT SUPPLY AIR SPLITTER,AIRLOOP DATACENTER BOT
     #Outlet Nodes on Supply Air Path Component,1
     Supply Air Path Component Nodes,1,AIRLOOPHVAC:ZONESPLITTER,AIRLOOP DATACENTER BOT SUPPLY AIR SPLITTER,AIRLOOP DATACENTER BOT ZONE EQUIPMENT INLET NODE,DATACENTER_BOT_ZN_6 ADU INLET NODE,AIRLOOP DATACENTER BOT
! <#Nodes on Supply Air Path>,<Number of Nodes>
! <Supply Air Path Node>,<Node Type>,<Node Count>,<Node Name>,<AirLoopHVAC Name>
#Nodes on Supply Air Path,2
   Supply Air Path Node,Inlet Node,1,AIRLOOP DATACENTER BOT ZONE EQUIPMENT INLET NODE,AIRLOOP DATACENTER BOT
   Supply Air Path Node,Outlet Node,2,DATACENTER_BOT_ZN_6 ADU INLET NODE,AIRLOOP DATACENTER BOT
 Supply Air Path,7,AIRLOOP DATACENTER MID,AIRLOOP DATACENTER MID
   #Components on Supply Air Path,1
   Supply Air Path Component,1,AIRLOOPHVAC:ZONESPLITTER,AIRLOOP DATACENTER MID SUPPLY AIR SPLITTER,AIRLOOP DATACENTER MID
     #Outlet Nodes on Supply Air Path Component,1
     Supply Air Path Component Nodes,1,AIRLOOPHVAC:ZONESPLITTER,AIRLOOP DATACENTER MID SUPPLY AIR SPLITTER,AIRLOOP DATACENTER MID ZONE EQUIPMENT INLET NODE,DATACENTER_MID_ZN_6 ADU INLET NODE,AIRLOOP DATACENTER MID
! <#Nodes on Supply Air Path>,<Number of Nodes>
! <Supply Air Path Node>,<Node Type>,<Node Count>,<Node Name>,<AirLoopHVAC Name>
#Nodes on Supply Air Path,2
   Supply Air Path Node,Inlet Node,1,AIRLOOP DATACENTER MID ZONE EQUIPMENT INLET NODE,AIRLOOP DATACENTER MID
   Supply Air Path Node,Outlet Node,2,DATACENTER_MID_ZN_6 ADU INLET NODE,AIRLOOP DATACENTER MID
 Supply Air Path,8,AIRLOOP DATACENTER TOP,AIRLOOP DATACENTER TOP
   #Components on Supply Air Path,1
   Supply Air Path Component,1,AIRLOOPHVAC:ZONESPLITTER,AIRLOOP DATACENTER TOP SUPPLY AIR SPLITTER,AIRLOOP DATACENTER TOP
     #Outlet Nodes on Supply Air Path Component,1
     Supply Air Path Component Nodes,1,AIRLOOPHVAC:ZONESPLITTER,AIRLOOP DATACENTER TOP SUPPLY AIR SPLITTER,AIRLOOP DATACENTER TOP ZONE EQUIPMENT INLET NODE,DATACENTER_TOP_ZN_6 ADU INLET NODE,AIRLOOP DATACENTER TOP
! <#Nodes on Supply Air Path>,<Number of Nodes>
! <Supply Air Path Node>,<Node Type>,<Node Count>,<Node Name>,<AirLoopHVAC Name>
#Nodes on Supply Air Path,2
   Supply Air Path Node,Inlet Node,1,AIRLOOP DATACENTER TOP ZONE EQUIPMENT INLET NODE,AIRLOOP DATACENTER TOP
   Supply Air Path Node,Outlet Node,2,DATACENTER_TOP_ZN_6 ADU INLET NODE,AIRLOOP DATACENTER TOP
! ===============================================================
! <#Return Air Paths>,<Number of Return Air Paths>
 #Return Air Paths,8
! <Return Air Path>,<Return Air Path Count>,<Return Air Path Name>,<AirLoopHVAC Name>
! <#Components on Return Air Path>,<Number of Components>
! <Return Air Path Component>,<Component Count>,<Component Type>,<Component Name>,<AirLoopHVAC Name>
! <#Inlet Nodes on Return Air Path Component>,<Number of Nodes>
! <Return Air Path Component Nodes>,<Node Count>,<Component Type>,<Component Name>,<Inlet Node Name>,<Outlet Node Name>,<AirLoopHVAC Name>
 Return Air Path,1,VAV_BOT WITH REHEAT RETURN AIR PATH,VAV_BOT WITH REHEAT
   #Components on Return Air Path,2
   Return Air Path Component,1,AIRLOOPHVAC:RETURNPLENUM,GROUNDFLOOR_PLENUM_RETURN,VAV_BOT WITH REHEAT
   Return Air Path Component,2,AIRLOOPHVAC:ZONEMIXER,VAV_BOT WITH REHEAT RETURN AIR MIXER,VAV_BOT WITH REHEAT
     #Inlet Nodes on Return Air Path Component,1
     Return Air Path Component Nodes,1,AIRLOOPHVAC:ZONEMIXER,VAV_BOT WITH REHEAT RETURN AIR MIXER,GROUNDFLOOR_PLENUM OUTLET NODE,VAV_BOT WITH REHEAT ZONE EQUIPMENT OUTLET NODE,VAV_BOT WITH REHEAT
! <#Nodes on Return Air Path>,<Number of Nodes>
! <Return Air Path Node>,<Node Type>,<Node Count>,<Node Name>,<AirLoopHVAC Name>
   #Nodes on Return Air Path,7
   Return Air Path Node,Outlet Node,1,VAV_BOT WITH REHEAT ZONE EQUIPMENT OUTLET NODE,VAV_BOT WITH REHEAT
   Return Air Path Node,Inlet Node,2,GROUNDFLOOR_PLENUM OUTLET NODE,VAV_BOT WITH REHEAT
   Return Air Path Node,Inlet Node,3,CORE_BOTTOM RETURN AIR NODE,VAV_BOT WITH REHEAT
   Return Air Path Node,Inlet Node,4,PERIMETER_BOT_ZN_3 RETURN AIR NODE,VAV_BOT WITH REHEAT
   Return Air Path Node,Inlet Node,5,PERIMETER_BOT_ZN_2 RETURN AIR NODE,VAV_BOT WITH REHEAT
   Return Air Path Node,Inlet Node,6,PERIMETER_BOT_ZN_1 RETURN AIR NODE,VAV_BOT WITH REHEAT
   Return Air Path Node,Inlet Node,7,PERIMETER_BOT_ZN_4 RETURN AIR NODE,VAV_BOT WITH REHEAT
 Return Air Path,2,VAV_MID WITH REHEAT RETURN AIR PATH,VAV_MID WITH REHEAT
   #Components on Return Air Path,2
   Return Air Path Component,1,AIRLOOPHVAC:RETURNPLENUM,MIDFLOOR_PLENUM_RETURN,VAV_MID WITH REHEAT
   Return Air Path Component,2,AIRLOOPHVAC:ZONEMIXER,VAV_MID WITH REHEAT RETURN AIR MIXER,VAV_MID WITH REHEAT
     #Inlet Nodes on Return Air Path Component,1
     Return Air Path Component Nodes,1,AIRLOOPHVAC:ZONEMIXER,VAV_MID WITH REHEAT RETURN AIR MIXER,MIDFLOOR_PLENUM OUTLET NODE,VAV_MID WITH REHEAT ZONE EQUIPMENT OUTLET NODE,VAV_MID WITH REHEAT
! <#Nodes on Return Air Path>,<Number of Nodes>
! <Return Air Path Node>,<Node Type>,<Node Count>,<Node Name>,<AirLoopHVAC Name>
   #Nodes on Return Air Path,7
   Return Air Path Node,Outlet Node,1,VAV_MID WITH REHEAT ZONE EQUIPMENT OUTLET NODE,VAV_MID WITH REHEAT
   Return Air Path Node,Inlet Node,2,MIDFLOOR_PLENUM OUTLET NODE,VAV_MID WITH REHEAT
   Return Air Path Node,Inlet Node,3,CORE_MID RETURN AIR NODE,VAV_MID WITH REHEAT
   Return Air Path Node,Inlet Node,4,PERIMETER_MID_ZN_3 RETURN AIR NODE,VAV_MID WITH REHEAT
   Return Air Path Node,Inlet Node,5,PERIMETER_MID_ZN_2 RETURN AIR NODE,VAV_MID WITH REHEAT
   Return Air Path Node,Inlet Node,6,PERIMETER_MID_ZN_1 RETURN AIR NODE,VAV_MID WITH REHEAT
   Return Air Path Node,Inlet Node,7,PERIMETER_MID_ZN_4 RETURN AIR NODE,VAV_MID WITH REHEAT
 Return Air Path,3,VAV_TOP WITH REHEAT RETURN AIR PATH,VAV_TOP WITH REHEAT
   #Components on Return Air Path,2
   Return Air Path Component,1,AIRLOOPHVAC:RETURNPLENUM,TOPFLOOR_PLENUM_RETURN,VAV_TOP WITH REHEAT
   Return Air Path Component,2,AIRLOOPHVAC:ZONEMIXER,VAV_TOP WITH REHEAT RETURN AIR MIXER,VAV_TOP WITH REHEAT
     #Inlet Nodes on Return Air Path Component,1
     Return Air Path Component Nodes,1,AIRLOOPHVAC:ZONEMIXER,VAV_TOP WITH REHEAT RETURN AIR MIXER,TOPFLOOR_PLENUM OUTLET NODE,VAV_TOP WITH REHEAT ZONE EQUIPMENT OUTLET NODE,VAV_TOP WITH REHEAT
! <#Nodes on Return Air Path>,<Number of Nodes>
! <Return Air Path Node>,<Node Type>,<Node Count>,<Node Name>,<AirLoopHVAC Name>
   #Nodes on Return Air Path,7
   Return Air Path Node,Outlet Node,1,VAV_TOP WITH REHEAT ZONE EQUIPMENT OUTLET NODE,VAV_TOP WITH REHEAT
   Return Air Path Node,Inlet Node,2,TOPFLOOR_PLENUM OUTLET NODE,VAV_TOP WITH REHEAT
   Return Air Path Node,Inlet Node,3,CORE_TOP RETURN AIR NODE,VAV_TOP WITH REHEAT
   Return Air Path Node,Inlet Node,4,PERIMETER_TOP_ZN_3 RETURN AIR NODE,VAV_TOP WITH REHEAT
   Return Air Path Node,Inlet Node,5,PERIMETER_TOP_ZN_2 RETURN AIR NODE,VAV_TOP WITH REHEAT
   Return Air Path Node,Inlet Node,6,PERIMETER_TOP_ZN_1 RETURN AIR NODE,VAV_TOP WITH REHEAT
   Return Air Path Node,Inlet Node,7,PERIMETER_TOP_ZN_4 RETURN AIR NODE,VAV_TOP WITH REHEAT
 Return Air Path,4,CAV_BAS RETURN AIR PATH,CAV_BAS
   #Components on Return Air Path,1
   Return Air Path Component,1,AIRLOOPHVAC:ZONEMIXER,CAV_BAS RETURN AIR MIXER,CAV_BAS
     #Inlet Nodes on Return Air Path Component,1
     Return Air Path Component Nodes,1,AIRLOOPHVAC:ZONEMIXER,CAV_BAS RETURN AIR MIXER,BASEMENT RETURN AIR NODE,CAV_BAS ZONE EQUIPMENT OUTLET NODE,CAV_BAS
! <#Nodes on Return Air Path>,<Number of Nodes>
! <Return Air Path Node>,<Node Type>,<Node Count>,<Node Name>,<AirLoopHVAC Name>
   #Nodes on Return Air Path,2
   Return Air Path Node,Outlet Node,1,CAV_BAS ZONE EQUIPMENT OUTLET NODE,CAV_BAS
   Return Air Path Node,Inlet Node,2,BASEMENT RETURN AIR NODE,CAV_BAS
 Return Air Path,5,AIRLOOP DATACENTER BASEMENT RETURN AIR PATH,AIRLOOP DATACENTER BASEMENT
   #Components on Return Air Path,1
   Return Air Path Component,1,AIRLOOPHVAC:ZONEMIXER,AIRLOOP DATACENTER BASEMENT RETURN AIR MIXER,AIRLOOP DATACENTER BASEMENT
     #Inlet Nodes on Return Air Path Component,1
     Return Air Path Component Nodes,1,AIRLOOPHVAC:ZONEMIXER,AIRLOOP DATACENTER BASEMENT RETURN AIR MIXER,DATACENTER_BASEMENT_ZN_6 RETURN AIR NODE,AIRLOOP DATACENTER BASEMENT ZONE EQUIPMENT OUTLET NODE,AIRLOOP DATACENTER BASEMENT
! <#Nodes on Return Air Path>,<Number of Nodes>
! <Return Air Path Node>,<Node Type>,<Node Count>,<Node Name>,<AirLoopHVAC Name>
   #Nodes on Return Air Path,2
   Return Air Path Node,Outlet Node,1,AIRLOOP DATACENTER BASEMENT ZONE EQUIPMENT OUTLET NODE,AIRLOOP DATACENTER BASEMENT
   Return Air Path Node,Inlet Node,2,DATACENTER_BASEMENT_ZN_6 RETURN AIR NODE,AIRLOOP DATACENTER BASEMENT
 Return Air Path,6,AIRLOOP DATACENTER BOT RETURN AIR PATH,AIRLOOP DATACENTER BOT
   #Components on Return Air Path,1
   Return Air Path Component,1,AIRLOOPHVAC:ZONEMIXER,AIRLOOP DATACENTER BOT RETURN AIR MIXER,AIRLOOP DATACENTER BOT
     #Inlet Nodes on Return Air Path Component,1
     Return Air Path Component Nodes,1,AIRLOOPHVAC:ZONEMIXER,AIRLOOP DATACENTER BOT RETURN AIR MIXER,DATACENTER_BOT_ZN_6 RETURN AIR NODE,AIRLOOP DATACENTER BOT ZONE EQUIPMENT OUTLET NODE,AIRLOOP DATACENTER BOT
! <#Nodes on Return Air Path>,<Number of Nodes>
! <Return Air Path Node>,<Node Type>,<Node Count>,<Node Name>,<AirLoopHVAC Name>
   #Nodes on Return Air Path,2
   Return Air Path Node,Outlet Node,1,AIRLOOP DATACENTER BOT ZONE EQUIPMENT OUTLET NODE,AIRLOOP DATACENTER BOT
   Return Air Path Node,Inlet Node,2,DATACENTER_BOT_ZN_6 RETURN AIR NODE,AIRLOOP DATACENTER BOT
 Return Air Path,7,AIRLOOP DATACENTER MID RETURN AIR PATH,AIRLOOP DATACENTER MID
   #Components on Return Air Path,1
   Return Air Path Component,1,AIRLOOPHVAC:ZONEMIXER,AIRLOOP DATACENTER MID RETURN AIR MIXER,AIRLOOP DATACENTER MID
     #Inlet Nodes on Return Air Path Component,1
     Return Air Path Component Nodes,1,AIRLOOPHVAC:ZONEMIXER,AIRLOOP DATACENTER MID RETURN AIR MIXER,DATACENTER_MID_ZN_6 RETURN AIR NODE,AIRLOOP DATACENTER MID ZONE EQUIPMENT OUTLET NODE,AIRLOOP DATACENTER MID
! <#Nodes on Return Air Path>,<Number of Nodes>
! <Return Air Path Node>,<Node Type>,<Node Count>,<Node Name>,<AirLoopHVAC Name>
   #Nodes on Return Air Path,2
   Return Air Path Node,Outlet Node,1,AIRLOOP DATACENTER MID ZONE EQUIPMENT OUTLET NODE,AIRLOOP DATACENTER MID
   Return Air Path Node,Inlet Node,2,DATACENTER_MID_ZN_6 RETURN AIR NODE,AIRLOOP DATACENTER MID
 Return Air Path,8,AIRLOOP DATACENTER TOP RETURN AIR PATH,AIRLOOP DATACENTER TOP
   #Components on Return Air Path,1
   Return Air Path Component,1,AIRLOOPHVAC:ZONEMIXER,AIRLOOP DATACENTER TOP RETURN AIR MIXER,AIRLOOP DATACENTER TOP
     #Inlet Nodes on Return Air Path Component,1
     Return Air Path Component Nodes,1,AIRLOOPHVAC:ZONEMIXER,AIRLOOP DATACENTER TOP RETURN AIR MIXER,DATACENTER_TOP_ZN_6 RETURN AIR NODE,AIRLOOP DATACENTER TOP ZONE EQUIPMENT OUTLET NODE,AIRLOOP DATACENTER TOP
! <#Nodes on Return Air Path>,<Number of Nodes>
! <Return Air Path Node>,<Node Type>,<Node Count>,<Node Name>,<AirLoopHVAC Name>
   #Nodes on Return Air Path,2
   Return Air Path Node,Outlet Node,1,AIRLOOP DATACENTER TOP ZONE EQUIPMENT OUTLET NODE,AIRLOOP DATACENTER TOP
   Return Air Path Node,Inlet Node,2,DATACENTER_TOP_ZN_6 RETURN AIR NODE,AIRLOOP DATACENTER TOP
! ===============================================================
! #Outdoor Air Nodes,<Number of Outdoor Air Nodes>
 #Outdoor Air Nodes,17
! <Outdoor Air Node>,<NodeNumber>,<Node Name>
 Outdoor Air Node,1,VAV_BOT WITH REHEAT_OAINLET NODE
 Outdoor Air Node,7,VAV_MID WITH REHEAT_OAINLET NODE
 Outdoor Air Node,13,VAV_TOP WITH REHEAT_OAINLET NODE
 Outdoor Air Node,20,CAV_BAS OAINLET NODE
 Outdoor Air Node,22,AIRLOOP DATACENTER BASEMENT OAINLET NODE
 Outdoor Air Node,24,AIRLOOP DATACENTER BOT OAINLET NODE
 Outdoor Air Node,26,AIRLOOP DATACENTER MID OAINLET NODE
 Outdoor Air Node,28,AIRLOOP DATACENTER TOP OAINLET NODE
 Outdoor Air Node,282,COMMON OSA INLET NODE
 Outdoor Air Node,283,TOWERWATERSYS COOLTOWER OA REF NODE
 Outdoor Air Node,284,CENTRAL TOWER OUTDOOR AIR INLET NODE
 Outdoor Air Node,285,VAV_BOT WITH REHEAT_COOLC COND OA NODE
 Outdoor Air Node,286,VAV_BOT WITH REHEAT_COOLCOA REF NODE
 Outdoor Air Node,287,VAV_MID WITH REHEAT_COOLC COND OA NODE
 Outdoor Air Node,288,VAV_MID WITH REHEAT_COOLCOA REF NODE
 Outdoor Air Node,289,VAV_TOP WITH REHEAT_COOLC COND OA NODE
 Outdoor Air Node,290,VAV_TOP WITH REHEAT_COOLCOA REF NODE
! ===============================================================
! <#Component Sets>,<Number of Component Sets>
 #Component Sets,167
! <Component Set>,<Component Set Count>,<Parent Object Type>,<Parent Object Name>,<Component Type>,<Component Name>,<Inlet Node ID>,<Outlet Node ID>,<Description>
 Component Set,1,BRANCH,HEATSYS1 SUPPLY INLET BRANCH,PUMP:VARIABLESPEED,HEATSYS1 PUMP,HEATSYS1 SUPPLY INLET NODE,HEATSYS1 PUMP-HEATSYS1 BOILERNODEVIACONNECTOR,Water Nodes
 Component Set,2,BRANCH,HEATSYS1 SUPPLY EQUIPMENT BRANCH,BOILER:HOTWATER,HEATSYS1 BOILER,HEATSYS1 PUMP-HEATSYS1 BOILERNODE,HEATSYS1 SUPPLY EQUIPMENT OUTLET NODE,Hot Water Nodes
 Component Set,3,BRANCH,HEATSYS1 SUPPLY EQUIPMENT BYPASS BRANCH,PIPE:ADIABATIC,HEATSYS1 SUPPLY EQUIPMENT BYPASS PIPE,HEATSYS1 SUPPLY EQUIP BYPASS INLET NODE,HEATSYS1 SUPPLY EQUIP BYPASS OUTLET NODE,Pipe Nodes
 Component Set,4,BRANCH,HEATSYS1 SUPPLY OUTLET BRANCH,PIPE:ADIABATIC,HEATSYS1 SUPPLY OUTLET PIPE,HEATSYS1 SUPPLY MIXER-HEATSYS1 SUPPLY OUTLET PIPE,HEATSYS1 SUPPLY OUTLET NODE,Pipe Nodes
 Component Set,5,BRANCH,HEATSYS1 DEMAND INLET BRANCH,PIPE:ADIABATIC,HEATSYS1 DEMAND INLET PIPE,HEATSYS1 DEMAND INLET NODE,HEATSYS1 DEMAND INLET PIPE-HEATSYS1 DEMAND MIXER,Pipe Nodes
 Component Set,6,BRANCH,HEATSYS1 DEMAND BYPASS BRANCH,PIPE:ADIABATIC,HEATSYS1 DEMAND BYPASS PIPE,HEATSYS1 DEMAND BYPASS PIPE INLET NODE,HEATSYS1 DEMAND BYPASS PIPE OUTLET NODE,Pipe Nodes
 Component Set,7,BRANCH,HEATSYS1 DEMAND OUTLET BRANCH,PIPE:ADIABATIC,HEATSYS1 DEMAND OUTLET PIPE,HEATSYS1 DEMAND MIXER-HEATSYS1 DEMAND OUTLET PIPE,HEATSYS1 DEMAND OUTLET NODE,Pipe Nodes
 Component Set,8,BRANCH,COOLSYS1 SUPPLY INLET BRANCH,PIPE:ADIABATIC,COOLSYS1 SUPPLY INLET PIPE,COOLSYS1 SUPPLY INLET NODE,COOLSYS1 PUMP-COOLSYS1 CHILLERNODEVIACONNECTOR,Pipe Nodes
 Component Set,9,BRANCH,COOLSYS1 SUPPLY EQUIPMENT BRANCH 1,PUMP:CONSTANTSPEED,COOLSYS1 CHILLER1 PUMP,COOLSYS1 CHILLER1 PUMP INLET NODE,COOLSYS1 PUMP-COOLSYS1 CHILLER1NODE,Water Nodes
 Component Set,10,BRANCH,COOLSYS1 SUPPLY EQUIPMENT BRANCH 1,CHILLER:ELECTRIC:REFORMULATEDEIR,COOLSYS1 CHILLER1,COOLSYS1 PUMP-COOLSYS1 CHILLER1NODE,COOLSYS1 SUPPLY EQUIPMENT OUTLET NODE 1,Chilled Water Nodes
 Component Set,11,BRANCH,COOLSYS1 SUPPLY EQUIPMENT BRANCH 2,PUMP:CONSTANTSPEED,COOLSYS1 CHILLER2 PUMP,COOLSYS1 CHILLER2 PUMP INLET NODE,COOLSYS1 PUMP-COOLSYS1 CHILLER2NODE,Water Nodes
 Component Set,12,BRANCH,COOLSYS1 SUPPLY EQUIPMENT BRANCH 2,CHILLER:ELECTRIC:REFORMULATEDEIR,COOLSYS1 CHILLER2,COOLSYS1 PUMP-COOLSYS1 CHILLER2NODE,COOLSYS1 SUPPLY EQUIPMENT OUTLET NODE 2,Chilled Water Nodes
 Component Set,13,BRANCH,COOLSYS1 SUPPLY EQUIPMENT BYPASS BRANCH,PIPE:ADIABATIC,COOLSYS1 SUPPLY EQUIPMENT BYPASS PIPE,COOLSYS1 SUPPLY EQUIP BYPASS INLET NODE,COOLSYS1 SUPPLY EQUIP BYPASS OUTLET NODE,Pipe Nodes
 Component Set,14,BRANCH,COOLSYS1 SUPPLY OUTLET BRANCH,PIPE:ADIABATIC,COOLSYS1 SUPPLY OUTLET PIPE,COOLSYS1 SUPPLY MIXER-COOLSYS1 SUPPLY OUTLET PIPE,COOLSYS1 SUPPLY OUTLET NODE,Pipe Nodes
 Component Set,15,BRANCH,COOLSYS1 DEMAND INLET BRANCH,PUMP:VARIABLESPEED,COOLSYS1 PUMP SECONDARY,COOLSYS1 DEMAND INLET NODE,COOLSYS1 PUMP SECONDARY-COOLSYS1 DEMAND MIXER,Water Nodes
 Component Set,16,BRANCH,COOLSYS1 DEMAND OUTLET BRANCH,PIPE:ADIABATIC,COOLSYS1 DEMAND OUTLET PIPE,COOLSYS1 DEMAND MIXER-COOLSYS1 DEMAND OUTLET PIPE,COOLSYS1 DEMAND OUTLET NODE,Pipe Nodes
 Component Set,17,BRANCH,COOLSYS1 SUPPLY DEMAND SIDE INLET BRANCH,PIPE:ADIABATIC,COOLSYS1 SUPPLY DEMAND SIDE INLET PIPE,COOLSYS1 SUPPLY DEMAND SIDE INLET PIPE INLET NODE,COOLSYS1 SUPPLY DEMAND SIDE INLET PIPE OUTLET NODE,Pipe Nodes
 Component Set,18,BRANCH,COOLSYS1 HEAT EXCHANGER SUPPLY BRANCH,HEATEXCHANGER:FLUIDTOFLUID,BYPASS HEAT EXCHANGER,COOLSYS1 EXCHANGER  SUPPLY INLET NODE,COOLSYS1 EXCHANGER  SUPPLY OUTLET NODE,Loop Demand Side Plant Nodes
 Component Set,19,BRANCH,COOLSYS1 SUPPLY SIDE BYPASS,PIPE:ADIABATIC,COOLSYS1 SUPPLY BYPASS,COOLSYS1 SUPPLY BYPASS INLET NODE,COOLSYS1 SUPPLY BYPASS OUTLET NODE,Pipe Nodes
 Component Set,20,BRANCH,COOLSYS1 SUPPLY DEMAND SIDE OUTLET BRANCH,PIPE:ADIABATIC,COOLSYS1 SUPPLY DEMAND SIDE OUTLET PIPE,COOLSYS1 SUPPLY DEMAND SIDE OUTLET PIPE INLET NODE,COOLSYS1 SUPPLY DEMAND SIDE OUTLET PIPE OUTLET NODE,Pipe Nodes
 Component Set,21,BRANCH,COOLSYS1 DEMAND SUPPLY SIDE INLET BRANCH,PIPE:ADIABATIC,COOLSYS1 DEMAND SUPPLY SIDE INLET PIPE,COOLSYS1 DEMAND SUPPLY SIDE INLET PIPE INLET NODE,COOLSYS1 DEMAND SUPPLY SIDE INLET PIPE OUTLET NODE,Pipe Nodes
 Component Set,22,BRANCH,COOLSYS1 HEAT EXCHANGER DEMAND BRANCH,HEATEXCHANGER:FLUIDTOFLUID,BYPASS HEAT EXCHANGER,COOLSYS1 EXCHANGER  DEMAND INLET NODE,COOLSYS1 EXCHANGER  DEMAND OUTLET NODE,Loop Supply Side Plant Nodes
 Component Set,23,BRANCH,COOLSYS1 DEMAND SIDE BYPASS,PIPE:ADIABATIC,COOLSYS1 DEMAND BYPASS,COOLSYS1 DEMAND BYPASS INLET NODE,COOLSYS1 DEMAND BYPASS OUTLET NODE,Pipe Nodes
 Component Set,24,BRANCH,COOLSYS1 DEMAND SUPPLY SIDE OUTLET BRANCH,PIPE:ADIABATIC,COOLSYS1 DEMAND SUPPLY SIDE OUTLET PIPE,COOLSYS1 DEMAND SUPPLY SIDE OUTLET PIPE INLET NODE,COOLSYS1 DEMAND SUPPLY SIDE OUTLET PIPE OUTLET NODE,Pipe Nodes
 Component Set,25,BRANCH,TOWERWATERSYS SUPPLY INLET BRANCH,HEADEREDPUMPS:VARIABLESPEED,TOWERWATERSYS PUMP,TOWERWATERSYS SUPPLY INLET NODE,TOWERWATERSYS PUMP-TOWERWATERSYS COOLTOWERNODEVIACONNECTOR,Water Nodes
 Component Set,26,BRANCH,TOWERWATERSYS SUPPLY EQUIPMENT BRANCH 1,COOLINGTOWER:VARIABLESPEED,TOWERWATERSYS COOLTOWER 1,TOWERWATERSYS PUMP-TOWERWATERSYS COOLTOWER1NODE,TOWERWATERSYS SUPPLY EQUIPMENT OUTLET NODE 1,Chilled Water Nodes
 Component Set,27,BRANCH,TOWERWATERSYS SUPPLY EQUIPMENT BRANCH 2,COOLINGTOWER:VARIABLESPEED,TOWERWATERSYS COOLTOWER 2,TOWERWATERSYS PUMP-TOWERWATERSYS COOLTOWER2NODE,TOWERWATERSYS SUPPLY EQUIPMENT OUTLET NODE 2,Chilled Water Nodes
 Component Set,28,BRANCH,TOWERWATERSYS SUPPLY EQUIPMENT BYPASS BRANCH,PIPE:ADIABATIC,TOWERWATERSYS SUPPLY EQUIPMENT BYPASS PIPE,TOWERWATERSYS SUPPLY EQUIP BYPASS INLET NODE,TOWERWATERSYS SUPPLY EQUIP BYPASS OUTLET NODE,Pipe Nodes
 Component Set,29,BRANCH,TOWERWATERSYS SUPPLY OUTLET BRANCH,PIPE:ADIABATIC,TOWERWATERSYS SUPPLY OUTLET PIPE,TOWERWATERSYS SUPPLY MIXER-TOWERWATERSYS SUPPLY OUTLET PIPE,TOWERWATERSYS SUPPLY OUTLET NODE,Pipe Nodes
 Component Set,30,BRANCH,TOWERWATERSYS DEMAND INLET BRANCH,PIPE:ADIABATIC,TOWERWATERSYS DEMAND INLET PIPE,TOWERWATERSYS DEMAND INLET NODE,TOWERWATERSYS DEMAND INLET PIPE-TOWERWATERSYS DEMAND MIXER,Pipe Nodes
 Component Set,31,BRANCH,TOWERWATERSYS DEMAND LOAD BRANCH 1,CHILLER:ELECTRIC:REFORMULATEDEIR,COOLSYS1 CHILLER1,COOLSYS1 CHILLER1 WATER INLET NODE,COOLSYS1 CHILLER1 WATER OUTLET NODE,Condenser Water Nodes
 Component Set,32,BRANCH,TOWERWATERSYS DEMAND LOAD BRANCH 2,CHILLER:ELECTRIC:REFORMULATEDEIR,COOLSYS1 CHILLER2,COOLSYS1 CHILLER2 WATER INLET NODE,COOLSYS1 CHILLER2 WATER OUTLET NODE,Condenser Water Nodes
 Component Set,33,BRANCH,TOWERWATERSYS DEMAND BYPASS BRANCH,PIPE:ADIABATIC,TOWERWATERSYS DEMAND BYPASS PIPE,TOWERWATERSYS DEMAND BYPASS PIPE INLET NODE,TOWERWATERSYS DEMAND BYPASS PIPE OUTLET NODE,Pipe Nodes
 Component Set,34,BRANCH,TOWERWATERSYS DEMAND OUTLET BRANCH,PIPE:ADIABATIC,TOWERWATERSYS DEMAND OUTLET PIPE,TOWERWATERSYS DEMAND MIXER-TOWERWATERSYS DEMAND OUTLET PIPE,TOWERWATERSYS DEMAND OUTLET NODE,Pipe Nodes
 Component Set,35,BRANCH,PLANT SUPPLY INLET BRANCH,PUMP:CONSTANTSPEED,PLANT CIRC PUMP,PLANT SUPPLY INLET NODE,PLANT PUMP OUTLET NODE,Water Nodes
 Component Set,36,BRANCH,PLANT SUPPLY TOWER BRANCH,FLUIDCOOLER:TWOSPEED,CENTRAL TOWER,CENTRAL TOWER INLET NODE,CENTRAL TOWER OUTLET NODE,Chilled Water Nodes
 Component Set,37,BRANCH,CENTRAL BOILER BRANCH,BOILER:HOTWATER,CENTRAL BOILER,CENTRAL BOILER INLET NODE,CENTRAL BOILER OUTLET NODE,Hot Water Nodes
 Component Set,38,BRANCH,PLANT SUPPLY BYPASS BRANCH,PIPE:ADIABATIC,PLANT SUPPLY SIDE BYPASS,PLANT SUPPLY BYPASS INLET NODE,PLANT SUPPLY BYPASS OUTLET NODE,Pipe Nodes
 Component Set,39,BRANCH,PLANT SUPPLY OUTLET BRANCH,PIPE:ADIABATIC,PLANT SUPPLY OUTLET,PLANT SUPPLY EXIT PIPE INLET NODE,PLANT SUPPLY OUTLET NODE,Pipe Nodes
 Component Set,40,BRANCH,PLANT DEMAND INLET BRANCH,PIPE:ADIABATIC,PLANT DEMAND INLET PIPE,PLANT DEMAND INLET NODE,PLANT DEMAND ENTRANCE PIPE OUTLET NODE,Pipe Nodes
 Component Set,41,BRANCH,PLANT DEMAND BYPASS BRANCH,PIPE:ADIABATIC,PLANT DEMAND SIDE BYPASS,COND DEMAND BYPASS INLET NODE,COND DEMAND BYPASS OUTLET NODE,Pipe Nodes
 Component Set,42,BRANCH,PLANT DEMAND OUTLET BRANCH,PIPE:ADIABATIC,PLANT DEMAND OUTLET PIPE,PLANT DEMAND EXIT PIPE INLET NODE,PLANT DEMAND OUTLET NODE,Pipe Nodes
 Component Set,43,BRANCH,VAV_BOT WITH REHEAT AIR LOOP MAIN BRANCH,AIRLOOPHVAC:OUTDOORAIRSYSTEM,VAV_BOT WITH REHEAT_OA,VAV_BOT WITH REHEAT SUPPLY EQUIPMENT INLET NODE,VAV_BOT WITH REHEAT_OA-VAV_BOT WITH REHEAT_COOLCNODE,Air Nodes
 Component Set,44,BRANCH,VAV_BOT WITH REHEAT AIR LOOP MAIN BRANCH,COIL:COOLING:WATER,VAV_BOT WITH REHEAT COOLING COIL,VAV_BOT WITH REHEAT_OA-VAV_BOT WITH REHEAT_COOLCNODE,VAV_BOT WITH REHEAT_COOLC-VAV_BOT WITH REHEAT_HEATCNODE,Air Nodes
 Component Set,45,BRANCH,VAV_BOT WITH REHEAT AIR LOOP MAIN BRANCH,COIL:HEATING:WATER,VAV_BOT WITH REHEAT HEATING COIL,VAV_BOT WITH REHEAT_COOLC-VAV_BOT WITH REHEAT_HEATCNODE,VAV_BOT WITH REHEAT_HEATC-VAV_BOT WITH REHEAT FANNODE,Air Nodes
 Component Set,46,BRANCH,VAV_BOT WITH REHEAT AIR LOOP MAIN BRANCH,FAN:VARIABLEVOLUME,VAV_BOT WITH REHEAT FAN,VAV_BOT WITH REHEAT_HEATC-VAV_BOT WITH REHEAT FANNODE,VAV_BOT WITH REHEAT SUPPLY EQUIPMENT OUTLET NODE,Air Nodes
 Component Set,47,BRANCH,COOLSYS1 VAV_BOT WITH REHEAT DEMAND LOAD BRANCH,COIL:COOLING:WATER,VAV_BOT WITH REHEAT COOLING COIL,VAV_BOT WITH REHEAT CCOIL WATER INLET,VAV_BOT WITH REHEAT CCOIL WATER OUTLET,Water Nodes
 Component Set,48,BRANCH,HEATSYS1 VAV_BOT WITH REHEAT DEMAND LOAD BRANCH,COIL:HEATING:WATER,VAV_BOT WITH REHEAT HEATING COIL,VAV_BOT WITH REHEAT HCOIL WATER INLET,VAV_BOT WITH REHEAT HCOIL WATER OUTLET,Water Nodes
 Component Set,49,BRANCH,HEATSYS1 CORE_BOTTOM DEMAND LOAD BRANCH,COIL:HEATING:WATER,CORE_BOTTOM VAV BOX REHEAT COIL,CORE_BOTTOM HCOIL WATER INLET,CORE_BOTTOM HCOIL WATER OUTLET,Water Nodes
 Component Set,50,BRANCH,HEATSYS1 PERIMETER_BOT_ZN_3 DEMAND LOAD BRANCH,COIL:HEATING:WATER,PERIMETER_BOT_ZN_3 VAV BOX REHEAT COIL,PERIMETER_BOT_ZN_3 HCOIL WATER INLET,PERIMETER_BOT_ZN_3 HCOIL WATER OUTLET,Water Nodes
 Component Set,51,BRANCH,HEATSYS1 PERIMETER_BOT_ZN_2 DEMAND LOAD BRANCH,COIL:HEATING:WATER,PERIMETER_BOT_ZN_2 VAV BOX REHEAT COIL,PERIMETER_BOT_ZN_2 HCOIL WATER INLET,PERIMETER_BOT_ZN_2 HCOIL WATER OUTLET,Water Nodes
 Component Set,52,BRANCH,HEATSYS1 PERIMETER_BOT_ZN_1 DEMAND LOAD BRANCH,COIL:HEATING:WATER,PERIMETER_BOT_ZN_1 VAV BOX REHEAT COIL,PERIMETER_BOT_ZN_1 HCOIL WATER INLET,PERIMETER_BOT_ZN_1 HCOIL WATER OUTLET,Water Nodes
 Component Set,53,BRANCH,HEATSYS1 PERIMETER_BOT_ZN_4 DEMAND LOAD BRANCH,COIL:HEATING:WATER,PERIMETER_BOT_ZN_4 VAV BOX REHEAT COIL,PERIMETER_BOT_ZN_4 HCOIL WATER INLET,PERIMETER_BOT_ZN_4 HCOIL WATER OUTLET,Water Nodes
 Component Set,54,BRANCH,VAV_MID WITH REHEAT AIR LOOP MAIN BRANCH,AIRLOOPHVAC:OUTDOORAIRSYSTEM,VAV_MID WITH REHEAT_OA,VAV_MID WITH REHEAT SUPPLY EQUIPMENT INLET NODE,VAV_MID WITH REHEAT_OA-VAV_MID WITH REHEAT_COOLCNODE,Air Nodes
 Component Set,55,BRANCH,VAV_MID WITH REHEAT AIR LOOP MAIN BRANCH,COIL:COOLING:WATER,VAV_MID WITH REHEAT COOLING COIL,VAV_MID WITH REHEAT_OA-VAV_MID WITH REHEAT_COOLCNODE,VAV_MID WITH REHEAT_COOLC-VAV_MID WITH REHEAT_HEATCNODE,Air Nodes
 Component Set,56,BRANCH,VAV_MID WITH REHEAT AIR LOOP MAIN BRANCH,COIL:HEATING:WATER,VAV_MID WITH REHEAT HEATING COIL,VAV_MID WITH REHEAT_COOLC-VAV_MID WITH REHEAT_HEATCNODE,VAV_MID WITH REHEAT_HEATC-VAV_MID WITH REHEAT FANNODE,Air Nodes
 Component Set,57,BRANCH,VAV_MID WITH REHEAT AIR LOOP MAIN BRANCH,FAN:VARIABLEVOLUME,VAV_MID WITH REHEAT FAN,VAV_MID WITH REHEAT_HEATC-VAV_MID WITH REHEAT FANNODE,VAV_MID WITH REHEAT SUPPLY EQUIPMENT OUTLET NODE,Air Nodes
 Component Set,58,BRANCH,COOLSYS1 VAV_MID WITH REHEAT DEMAND LOAD BRANCH,COIL:COOLING:WATER,VAV_MID WITH REHEAT COOLING COIL,VAV_MID WITH REHEAT CCOIL WATER INLET,VAV_MID WITH REHEAT CCOIL WATER OUTLET,Water Nodes
 Component Set,59,BRANCH,HEATSYS1 VAV_MID WITH REHEAT DEMAND LOAD BRANCH,COIL:HEATING:WATER,VAV_MID WITH REHEAT HEATING COIL,VAV_MID WITH REHEAT HCOIL WATER INLET,VAV_MID WITH REHEAT HCOIL WATER OUTLET,Water Nodes
 Component Set,60,BRANCH,HEATSYS1 CORE_MID DEMAND LOAD BRANCH,COIL:HEATING:WATER,CORE_MID VAV BOX REHEAT COIL,CORE_MID HCOIL WATER INLET,CORE_MID HCOIL WATER OUTLET,Water Nodes
 Component Set,61,BRANCH,HEATSYS1 PERIMETER_MID_ZN_3 DEMAND LOAD BRANCH,COIL:HEATING:WATER,PERIMETER_MID_ZN_3 VAV BOX REHEAT COIL,PERIMETER_MID_ZN_3 HCOIL WATER INLET,PERIMETER_MID_ZN_3 HCOIL WATER OUTLET,Water Nodes
 Component Set,62,BRANCH,HEATSYS1 PERIMETER_MID_ZN_2 DEMAND LOAD BRANCH,COIL:HEATING:WATER,PERIMETER_MID_ZN_2 VAV BOX REHEAT COIL,PERIMETER_MID_ZN_2 HCOIL WATER INLET,PERIMETER_MID_ZN_2 HCOIL WATER OUTLET,Water Nodes
 Component Set,63,BRANCH,HEATSYS1 PERIMETER_MID_ZN_1 DEMAND LOAD BRANCH,COIL:HEATING:WATER,PERIMETER_MID_ZN_1 VAV BOX REHEAT COIL,PERIMETER_MID_ZN_1 HCOIL WATER INLET,PERIMETER_MID_ZN_1 HCOIL WATER OUTLET,Water Nodes
 Component Set,64,BRANCH,HEATSYS1 PERIMETER_MID_ZN_4 DEMAND LOAD BRANCH,COIL:HEATING:WATER,PERIMETER_MID_ZN_4 VAV BOX REHEAT COIL,PERIMETER_MID_ZN_4 HCOIL WATER INLET,PERIMETER_MID_ZN_4 HCOIL WATER OUTLET,Water Nodes
 Component Set,65,BRANCH,VAV_TOP WITH REHEAT AIR LOOP MAIN BRANCH,AIRLOOPHVAC:OUTDOORAIRSYSTEM,VAV_TOP WITH REHEAT_OA,VAV_TOP WITH REHEAT SUPPLY EQUIPMENT INLET NODE,VAV_TOP WITH REHEAT_OA-VAV_TOP WITH REHEAT_COOLCNODE,Air Nodes
 Component Set,66,BRANCH,VAV_TOP WITH REHEAT AIR LOOP MAIN BRANCH,COIL:COOLING:WATER,VAV_TOP WITH REHEAT COOLING COIL,VAV_TOP WITH REHEAT_OA-VAV_TOP WITH REHEAT_COOLCNODE,VAV_TOP WITH REHEAT_COOLC-VAV_TOP WITH REHEAT_HEATCNODE,Air Nodes
 Component Set,67,BRANCH,VAV_TOP WITH REHEAT AIR LOOP MAIN BRANCH,COIL:HEATING:WATER,VAV_TOP WITH REHEAT HEATING COIL,VAV_TOP WITH REHEAT_COOLC-VAV_TOP WITH REHEAT_HEATCNODE,VAV_TOP WITH REHEAT_HEATC-VAV_TOP WITH REHEAT FANNODE,Air Nodes
 Component Set,68,BRANCH,VAV_TOP WITH REHEAT AIR LOOP MAIN BRANCH,FAN:VARIABLEVOLUME,VAV_TOP WITH REHEAT FAN,VAV_TOP WITH REHEAT_HEATC-VAV_TOP WITH REHEAT FANNODE,VAV_TOP WITH REHEAT SUPPLY EQUIPMENT OUTLET NODE,Air Nodes
 Component Set,69,BRANCH,COOLSYS1 VAV_TOP WITH REHEAT DEMAND LOAD BRANCH,COIL:COOLING:WATER,VAV_TOP WITH REHEAT COOLING COIL,VAV_TOP WITH REHEAT CCOIL WATER INLET,VAV_TOP WITH REHEAT CCOIL WATER OUTLET,Water Nodes
 Component Set,70,BRANCH,HEATSYS1 VAV_TOP WITH REHEAT DEMAND LOAD BRANCH,COIL:HEATING:WATER,VAV_TOP WITH REHEAT HEATING COIL,VAV_TOP WITH REHEAT HCOIL WATER INLET,VAV_TOP WITH REHEAT HCOIL WATER OUTLET,Water Nodes
 Component Set,71,BRANCH,HEATSYS1 CORE_TOP DEMAND LOAD BRANCH,COIL:HEATING:WATER,CORE_TOP VAV BOX REHEAT COIL,CORE_TOP HCOIL WATER INLET,CORE_TOP HCOIL WATER OUTLET,Water Nodes
 Component Set,72,BRANCH,HEATSYS1 PERIMETER_TOP_ZN_3 DEMAND LOAD BRANCH,COIL:HEATING:WATER,PERIMETER_TOP_ZN_3 VAV BOX REHEAT COIL,PERIMETER_TOP_ZN_3 HCOIL WATER INLET,PERIMETER_TOP_ZN_3 HCOIL WATER OUTLET,Water Nodes
 Component Set,73,BRANCH,HEATSYS1 PERIMETER_TOP_ZN_2 DEMAND LOAD BRANCH,COIL:HEATING:WATER,PERIMETER_TOP_ZN_2 VAV BOX REHEAT COIL,PERIMETER_TOP_ZN_2 HCOIL WATER INLET,PERIMETER_TOP_ZN_2 HCOIL WATER OUTLET,Water Nodes
 Component Set,74,BRANCH,HEATSYS1 PERIMETER_TOP_ZN_1 DEMAND LOAD BRANCH,COIL:HEATING:WATER,PERIMETER_TOP_ZN_1 VAV BOX REHEAT COIL,PERIMETER_TOP_ZN_1 HCOIL WATER INLET,PERIMETER_TOP_ZN_1 HCOIL WATER OUTLET,Water Nodes
 Component Set,75,BRANCH,HEATSYS1 PERIMETER_TOP_ZN_4 DEMAND LOAD BRANCH,COIL:HEATING:WATER,PERIMETER_TOP_ZN_4 VAV BOX REHEAT COIL,PERIMETER_TOP_ZN_4 HCOIL WATER INLET,PERIMETER_TOP_ZN_4 HCOIL WATER OUTLET,Water Nodes
 Component Set,76,BRANCH,COOLSYS1 BASEMENT DEMAND LOAD BRANCH,COIL:COOLING:WATER,CAV_BAS COOLING COIL,CAV_BAS CCOIL WATER INLET,CAV_BAS CCOIL WATER OUTLET,Water Nodes
 Component Set,77,BRANCH,HEATSYS1 BASEMENT DEMAND LOAD BRANCH,COIL:HEATING:WATER,CAV_BAS HEATING COIL,CAV_BAS HCOIL WATER INLET,CAV_BAS HCOIL WATER OUTLET,Water Nodes
 Component Set,78,BRANCH,CAV_BAS AIR LOOP MAIN BRANCH,AIRLOOPHVAC:OUTDOORAIRSYSTEM,CAV_BAS_OA,CAV_BAS SUPPLY EQUIPMENT INLET NODE,CAV_BAS MIXED AIR OUTLET,Air Nodes
 Component Set,79,BRANCH,CAV_BAS AIR LOOP MAIN BRANCH,COIL:COOLING:WATER,CAV_BAS COOLING COIL,CAV_BAS MIXED AIR OUTLET,CAV_BAS COOLING COIL OUTLET,Air Nodes
 Component Set,80,BRANCH,CAV_BAS AIR LOOP MAIN BRANCH,COIL:HEATING:WATER,CAV_BAS HEATING COIL,CAV_BAS COOLING COIL OUTLET,CAV_BAS HEATING COIL OUTLET,Air Nodes
 Component Set,81,BRANCH,CAV_BAS AIR LOOP MAIN BRANCH,FAN:CONSTANTVOLUME,CAV_BAS FAN,CAV_BAS HEATING COIL OUTLET,CAV_BAS SUPPLY EQUIPMENT OUTLET NODE,Air Nodes
 Component Set,82,BRANCH,WSHP COOLING PLANT BRANCH DATACENTER_BASEMENT_ZN_6,COIL:COOLING:WATERTOAIRHEATPUMP:EQUATIONFIT,AIRLOOP DATACENTER BASEMENT COOLING COIL,AIRLOOP DATACENTER BASEMENT CCOIL WATER INLET,AIRLOOP DATACENTER BASEMENT CCOIL WATER OUTLET,Water Nodes
 Component Set,83,BRANCH,WSHP HEATING PLANT BRANCH DATACENTER_BASEMENT_ZN_6,COIL:HEATING:WATERTOAIRHEATPUMP:EQUATIONFIT,AIRLOOP DATACENTER BASEMENT HEATING COIL,AIRLOOP DATACENTER BASEMENT HCOIL WATER INLET,AIRLOOP DATACENTER BASEMENT HCOIL WATER OUTLET,Water Nodes
 Component Set,84,BRANCH,AIRLOOP DATACENTER BASEMENT AIR LOOP MAIN BRANCH,AIRLOOPHVAC:OUTDOORAIRSYSTEM,AIRLOOP DATACENTER BASEMENT_OA,AIRLOOP DATACENTER BASEMENT SUPPLY EQUIPMENT INLET NODE,AIRLOOP DATACENTER BASEMENT MIXED AIR OUTLET,Air Nodes
 Component Set,85,BRANCH,AIRLOOP DATACENTER BASEMENT AIR LOOP MAIN BRANCH,AIRLOOPHVAC:UNITARYHEATPUMP:WATERTOAIR,AIRLOOP DATACENTER BASEMENT DXAC HEAT PUMP,AIRLOOP DATACENTER BASEMENT MIXED AIR OUTLET,AIRLOOP DATACENTER BASEMENT SUP HEATC OUTLET NODE,Air Nodes
 Component Set,86,BRANCH,AIRLOOP DATACENTER BASEMENT AIR LOOP MAIN BRANCH,HUMIDIFIER:STEAM:ELECTRIC,DATACENTER_BASEMENT_ZN_6 HUMIDIFIER,AIRLOOP DATACENTER BASEMENT SUP HEATC OUTLET NODE,AIRLOOP DATACENTER BASEMENT SUPPLY EQUIPMENT OUTLET NODE,Air Nodes
 Component Set,87,BRANCH,WSHP COOLING PLANT BRANCH DATACENTER_BOT_ZN_6,COIL:COOLING:WATERTOAIRHEATPUMP:EQUATIONFIT,AIRLOOP DATACENTER BOT COOLING COIL,AIRLOOP DATACENTER BOT CCOIL WATER INLET,AIRLOOP DATACENTER BOT CCOIL WATER OUTLET,Water Nodes
 Component Set,88,BRANCH,WSHP HEATING PLANT BRANCH DATACENTER_BOT_ZN_6,COIL:HEATING:WATERTOAIRHEATPUMP:EQUATIONFIT,AIRLOOP DATACENTER BOT HEATING COIL,AIRLOOP DATACENTER BOT HCOIL WATER INLET,AIRLOOP DATACENTER BOT HCOIL WATER OUTLET,Water Nodes
 Component Set,89,BRANCH,AIRLOOP DATACENTER BOT AIR LOOP MAIN BRANCH,AIRLOOPHVAC:OUTDOORAIRSYSTEM,AIRLOOP DATACENTER BOT_OA,AIRLOOP DATACENTER BOT SUPPLY EQUIPMENT INLET NODE,AIRLOOP DATACENTER BOT MIXED AIR OUTLET,Air Nodes
 Component Set,90,BRANCH,AIRLOOP DATACENTER BOT AIR LOOP MAIN BRANCH,AIRLOOPHVAC:UNITARYHEATPUMP:WATERTOAIR,AIRLOOP DATACENTER BOT DXAC HEAT PUMP,AIRLOOP DATACENTER BOT MIXED AIR OUTLET,AIRLOOP DATACENTER BOT SUPPLY EQUIPMENT OUTLET NODE,Air Nodes
 Component Set,91,BRANCH,WSHP COOLING PLANT BRANCH DATACENTER_MID_ZN_6,COIL:COOLING:WATERTOAIRHEATPUMP:EQUATIONFIT,AIRLOOP DATACENTER MID COOLING COIL,AIRLOOP DATACENTER MID CCOIL WATER INLET,AIRLOOP DATACENTER MID CCOIL WATER OUTLET,Water Nodes
 Component Set,92,BRANCH,WSHP HEATING PLANT BRANCH DATACENTER_MID_ZN_6,COIL:HEATING:WATERTOAIRHEATPUMP:EQUATIONFIT,AIRLOOP DATACENTER MID HEATING COIL,AIRLOOP DATACENTER MID HCOIL WATER INLET,AIRLOOP DATACENTER MID HCOIL WATER OUTLET,Water Nodes
 Component Set,93,BRANCH,AIRLOOP DATACENTER MID AIR LOOP MAIN BRANCH,AIRLOOPHVAC:OUTDOORAIRSYSTEM,AIRLOOP DATACENTER MID_OA,AIRLOOP DATACENTER MID SUPPLY EQUIPMENT INLET NODE,AIRLOOP DATACENTER MID MIXED AIR OUTLET,Air Nodes
 Component Set,94,BRANCH,AIRLOOP DATACENTER MID AIR LOOP MAIN BRANCH,AIRLOOPHVAC:UNITARYHEATPUMP:WATERTOAIR,AIRLOOP DATACENTER MID DXAC HEAT PUMP,AIRLOOP DATACENTER MID MIXED AIR OUTLET,AIRLOOP DATACENTER MID SUPPLY EQUIPMENT OUTLET NODE,Air Nodes
 Component Set,95,BRANCH,WSHP COOLING PLANT BRANCH DATACENTER_TOP_ZN_6,COIL:COOLING:WATERTOAIRHEATPUMP:EQUATIONFIT,AIRLOOP DATACENTER TOP COOLING COIL,AIRLOOP DATACENTER TOP CCOIL WATER INLET,AIRLOOP DATACENTER TOP CCOIL WATER OUTLET,Water Nodes
 Component Set,96,BRANCH,WSHP HEATING PLANT BRANCH DATACENTER_TOP_ZN_6,COIL:HEATING:WATERTOAIRHEATPUMP:EQUATIONFIT,AIRLOOP DATACENTER TOP HEATING COIL,AIRLOOP DATACENTER TOP HCOIL WATER INLET,AIRLOOP DATACENTER TOP HCOIL WATER OUTLET,Water Nodes
 Component Set,97,BRANCH,AIRLOOP DATACENTER TOP AIR LOOP MAIN BRANCH,AIRLOOPHVAC:OUTDOORAIRSYSTEM,AIRLOOP DATACENTER TOP_OA,AIRLOOP DATACENTER TOP SUPPLY EQUIPMENT INLET NODE,AIRLOOP DATACENTER TOP MIXED AIR OUTLET,Air Nodes
 Component Set,98,BRANCH,AIRLOOP DATACENTER TOP AIR LOOP MAIN BRANCH,AIRLOOPHVAC:UNITARYHEATPUMP:WATERTOAIR,AIRLOOP DATACENTER TOP DXAC HEAT PUMP,AIRLOOP DATACENTER TOP MIXED AIR OUTLET,AIRLOOP DATACENTER TOP SUPPLY EQUIPMENT OUTLET NODE,Air Nodes
 Component Set,99,BRANCH,SWHSYS1 SUPPLY INLET BRANCH,PUMP:CONSTANTSPEED,SWHSYS1 PUMP,SWHSYS1 SUPPLY INLET NODE,SWHSYS1 PUMP-WATER HEATERNODEVIACONNECTOR,Water Nodes
 Component Set,100,BRANCH,SWHSYS1 SUPPLY EQUIPMENT BRANCH,WATERHEATER:MIXED,SWHSYS1 WATER HEATER,SWHSYS1 PUMP-WATER HEATERNODE,SWHSYS1 SUPPLY EQUIPMENT OUTLET NODE,Use Side Water Nodes
 Component Set,101,BRANCH,SWHSYS1 SUPPLY EQUIPMENT BYPASS BRANCH,PIPE:ADIABATIC,SWHSYS1 SUPPLY EQUIPMENT BYPASS PIPE,SWHSYS1 SUPPLY EQUIP BYPASS INLET NODE,SWHSYS1 SUPPLY EQUIP BYPASS OUTLET NODE,Pipe Nodes
 Component Set,102,BRANCH,SWHSYS1 SUPPLY OUTLET BRANCH,PIPE:ADIABATIC,SWHSYS1 SUPPLY OUTLET PIPE,SWHSYS1 SUPPLY MIXER-SWHSYS1 SUPPLY OUTLET PIPE,SWHSYS1 SUPPLY OUTLET NODE,Pipe Nodes
 Component Set,103,BRANCH,SWHSYS1 DEMAND INLET BRANCH,PIPE:ADIABATIC,SWHSYS1 DEMAND INLET PIPE,SWHSYS1 DEMAND INLET NODE,SWHSYS1 DEMAND INLET PIPE-SWHSYS1 DEMAND MIXER,Pipe Nodes
[...]
 Non-Parent Node Connection,DATACENTER_MID_ZN_6 RETURN AIR NODE,AIRLOOPHVAC:ZONEMIXER,AIRLOOP DATACENTER MID RETURN AIR MIXER,Inlet,1
 Non-Parent Node Connection,AIRLOOP DATACENTER TOP ZONE EQUIPMENT OUTLET NODE,AIRLOOPHVAC:ZONEMIXER,AIRLOOP DATACENTER TOP RETURN AIR MIXER,Outlet,1
 Non-Parent Node Connection,DATACENTER_TOP_ZN_6 RETURN AIR NODE,AIRLOOPHVAC:ZONEMIXER,AIRLOOP DATACENTER TOP RETURN AIR MIXER,Inlet,1
 Non-Parent Node Connection,VAV_BOT WITH REHEAT_OA-VAV_BOT WITH REHEAT_COOLCNODE,OUTDOORAIR:MIXER,VAV_BOT WITH REHEAT_OAMIXING BOX,Outlet,1
 Non-Parent Node Connection,VAV_BOT WITH REHEAT_OAINLET NODE,OUTDOORAIR:MIXER,VAV_BOT WITH REHEAT_OAMIXING BOX,Inlet,1
 Non-Parent Node Connection,VAV_BOT WITH REHEAT_OARELIEF NODE,OUTDOORAIR:MIXER,VAV_BOT WITH REHEAT_OAMIXING BOX,ReliefAir,1
 Non-Parent Node Connection,VAV_BOT WITH REHEAT SUPPLY EQUIPMENT INLET NODE,OUTDOORAIR:MIXER,VAV_BOT WITH REHEAT_OAMIXING BOX,Inlet,1
 Non-Parent Node Connection,VAV_MID WITH REHEAT_OA-VAV_MID WITH REHEAT_COOLCNODE,OUTDOORAIR:MIXER,VAV_MID WITH REHEAT_OAMIXING BOX,Outlet,1
 Non-Parent Node Connection,VAV_MID WITH REHEAT_OAINLET NODE,OUTDOORAIR:MIXER,VAV_MID WITH REHEAT_OAMIXING BOX,Inlet,1
 Non-Parent Node Connection,VAV_MID WITH REHEAT_OARELIEF NODE,OUTDOORAIR:MIXER,VAV_MID WITH REHEAT_OAMIXING BOX,ReliefAir,1
 Non-Parent Node Connection,VAV_MID WITH REHEAT SUPPLY EQUIPMENT INLET NODE,OUTDOORAIR:MIXER,VAV_MID WITH REHEAT_OAMIXING BOX,Inlet,1
 Non-Parent Node Connection,VAV_TOP WITH REHEAT_OA-VAV_TOP WITH REHEAT_COOLCNODE,OUTDOORAIR:MIXER,VAV_TOP WITH REHEAT_OAMIXING BOX,Outlet,1
 Non-Parent Node Connection,VAV_TOP WITH REHEAT_OAINLET NODE,OUTDOORAIR:MIXER,VAV_TOP WITH REHEAT_OAMIXING BOX,Inlet,1
 Non-Parent Node Connection,VAV_TOP WITH REHEAT_OARELIEF NODE,OUTDOORAIR:MIXER,VAV_TOP WITH REHEAT_OAMIXING BOX,ReliefAir,1
 Non-Parent Node Connection,VAV_TOP WITH REHEAT SUPPLY EQUIPMENT INLET NODE,OUTDOORAIR:MIXER,VAV_TOP WITH REHEAT_OAMIXING BOX,Inlet,1
 Non-Parent Node Connection,CAV_BAS MIXED AIR OUTLET,OUTDOORAIR:MIXER,CAV_BAS_OAMIXING BOX,Outlet,1
 Non-Parent Node Connection,CAV_BAS OAINLET NODE,OUTDOORAIR:MIXER,CAV_BAS_OAMIXING BOX,Inlet,1
 Non-Parent Node Connection,CAV_BAS OARELIEF NODE,OUTDOORAIR:MIXER,CAV_BAS_OAMIXING BOX,ReliefAir,1
 Non-Parent Node Connection,CAV_BAS SUPPLY EQUIPMENT INLET NODE,OUTDOORAIR:MIXER,CAV_BAS_OAMIXING BOX,Inlet,1
 Non-Parent Node Connection,AIRLOOP DATACENTER BASEMENT MIXED AIR OUTLET,OUTDOORAIR:MIXER,AIRLOOP DATACENTER BASEMENT_OAMIXING BOX,Outlet,1
 Non-Parent Node Connection,AIRLOOP DATACENTER BASEMENT OAINLET NODE,OUTDOORAIR:MIXER,AIRLOOP DATACENTER BASEMENT_OAMIXING BOX,Inlet,1
 Non-Parent Node Connection,AIRLOOP DATACENTER BASEMENT OARELIEF NODE,OUTDOORAIR:MIXER,AIRLOOP DATACENTER BASEMENT_OAMIXING BOX,ReliefAir,1
 Non-Parent Node Connection,AIRLOOP DATACENTER BASEMENT SUPPLY EQUIPMENT INLET NODE,OUTDOORAIR:MIXER,AIRLOOP DATACENTER BASEMENT_OAMIXING BOX,Inlet,1
 Non-Parent Node Connection,AIRLOOP DATACENTER BOT MIXED AIR OUTLET,OUTDOORAIR:MIXER,AIRLOOP DATACENTER BOT_OAMIXING BOX,Outlet,1
 Non-Parent Node Connection,AIRLOOP DATACENTER BOT OAINLET NODE,OUTDOORAIR:MIXER,AIRLOOP DATACENTER BOT_OAMIXING BOX,Inlet,1
 Non-Parent Node Connection,AIRLOOP DATACENTER BOT OARELIEF NODE,OUTDOORAIR:MIXER,AIRLOOP DATACENTER BOT_OAMIXING BOX,ReliefAir,1
 Non-Parent Node Connection,AIRLOOP DATACENTER BOT SUPPLY EQUIPMENT INLET NODE,OUTDOORAIR:MIXER,AIRLOOP DATACENTER BOT_OAMIXING BOX,Inlet,1
 Non-Parent Node Connection,AIRLOOP DATACENTER MID MIXED AIR OUTLET,OUTDOORAIR:MIXER,AIRLOOP DATACENTER MID_OAMIXING BOX,Outlet,1
 Non-Parent Node Connection,AIRLOOP DATACENTER MID OAINLET NODE,OUTDOORAIR:MIXER,AIRLOOP DATACENTER MID_OAMIXING BOX,Inlet,1
 Non-Parent Node Connection,AIRLOOP DATACENTER MID OARELIEF NODE,OUTDOORAIR:MIXER,AIRLOOP DATACENTER MID_OAMIXING BOX,ReliefAir,1
 Non-Parent Node Connection,AIRLOOP DATACENTER MID SUPPLY EQUIPMENT INLET NODE,OUTDOORAIR:MIXER,AIRLOOP DATACENTER MID_OAMIXING BOX,Inlet,1
 Non-Parent Node Connection,AIRLOOP DATACENTER TOP MIXED AIR OUTLET,OUTDOORAIR:MIXER,AIRLOOP DATACENTER TOP_OAMIXING BOX,Outlet,1
 Non-Parent Node Connection,AIRLOOP DATACENTER TOP OAINLET NODE,OUTDOORAIR:MIXER,AIRLOOP DATACENTER TOP_OAMIXING BOX,Inlet,1
 Non-Parent Node Connection,AIRLOOP DATACENTER TOP OARELIEF NODE,OUTDOORAIR:MIXER,AIRLOOP DATACENTER TOP_OAMIXING BOX,ReliefAir,1
 Non-Parent Node Connection,AIRLOOP DATACENTER TOP SUPPLY EQUIPMENT INLET NODE,OUTDOORAIR:MIXER,AIRLOOP DATACENTER TOP_OAMIXING BOX,Inlet,1
 Non-Parent Node Connection,CAV_BAS HEATING COIL OUTLET,FAN:CONSTANTVOLUME,CAV_BAS FAN,Inlet,1
 Non-Parent Node Connection,CAV_BAS SUPPLY EQUIPMENT OUTLET NODE,FAN:CONSTANTVOLUME,CAV_BAS FAN,Outlet,1
 Non-Parent Node Connection,VAV_BOT WITH REHEAT_HEATC-VAV_BOT WITH REHEAT FANNODE,FAN:VARIABLEVOLUME,VAV_BOT WITH REHEAT FAN,Inlet,1
 Non-Parent Node Connection,VAV_BOT WITH REHEAT SUPPLY EQUIPMENT OUTLET NODE,FAN:VARIABLEVOLUME,VAV_BOT WITH REHEAT FAN,Outlet,1
 Non-Parent Node Connection,VAV_MID WITH REHEAT_HEATC-VAV_MID WITH REHEAT FANNODE,FAN:VARIABLEVOLUME,VAV_MID WITH REHEAT FAN,Inlet,1
 Non-Parent Node Connection,VAV_MID WITH REHEAT SUPPLY EQUIPMENT OUTLET NODE,FAN:VARIABLEVOLUME,VAV_MID WITH REHEAT FAN,Outlet,1
 Non-Parent Node Connection,VAV_TOP WITH REHEAT_HEATC-VAV_TOP WITH REHEAT FANNODE,FAN:VARIABLEVOLUME,VAV_TOP WITH REHEAT FAN,Inlet,1
 Non-Parent Node Connection,VAV_TOP WITH REHEAT SUPPLY EQUIPMENT OUTLET NODE,FAN:VARIABLEVOLUME,VAV_TOP WITH REHEAT FAN,Outlet,1
 Non-Parent Node Connection,AIRLOOP DATACENTER BASEMENT MIXED AIR OUTLET,FAN:ONOFF,AIRLOOP DATACENTER BASEMENT SUPPLY FAN,Inlet,1
 Non-Parent Node Connection,AIRLOOP DATACENTER BASEMENT SUPPLY FAN OUTLET,FAN:ONOFF,AIRLOOP DATACENTER BASEMENT SUPPLY FAN,Outlet,1
 Non-Parent Node Connection,AIRLOOP DATACENTER BOT MIXED AIR OUTLET,FAN:ONOFF,AIRLOOP DATACENTER BOT SUPPLY FAN,Inlet,1
 Non-Parent Node Connection,AIRLOOP DATACENTER BOT SUPPLY FAN OUTLET,FAN:ONOFF,AIRLOOP DATACENTER BOT SUPPLY FAN,Outlet,1
 Non-Parent Node Connection,AIRLOOP DATACENTER MID MIXED AIR OUTLET,FAN:ONOFF,AIRLOOP DATACENTER MID SUPPLY FAN,Inlet,1
 Non-Parent Node Connection,AIRLOOP DATACENTER MID SUPPLY FAN OUTLET,FAN:ONOFF,AIRLOOP DATACENTER MID SUPPLY FAN,Outlet,1
 Non-Parent Node Connection,AIRLOOP DATACENTER TOP MIXED AIR OUTLET,FAN:ONOFF,AIRLOOP DATACENTER TOP SUPPLY FAN,Inlet,1
 Non-Parent Node Connection,AIRLOOP DATACENTER TOP SUPPLY FAN OUTLET,FAN:ONOFF,AIRLOOP DATACENTER TOP SUPPLY FAN,Outlet,1
 Non-Parent Node Connection,VAV_BOT WITH REHEAT_OA-VAV_BOT WITH REHEAT_COOLCNODE,CONTROLLER:OUTDOORAIR,VAV_BOT WITH REHEAT_OA_CONTROLLER,Sensor,1
 Non-Parent Node Connection,VAV_BOT WITH REHEAT_OAINLET NODE,CONTROLLER:OUTDOORAIR,VAV_BOT WITH REHEAT_OA_CONTROLLER,Actuator,1
 Non-Parent Node Connection,VAV_BOT WITH REHEAT_OARELIEF NODE,CONTROLLER:OUTDOORAIR,VAV_BOT WITH REHEAT_OA_CONTROLLER,Actuator,1
 Non-Parent Node Connection,VAV_BOT WITH REHEAT SUPPLY EQUIPMENT INLET NODE,CONTROLLER:OUTDOORAIR,VAV_BOT WITH REHEAT_OA_CONTROLLER,Sensor,1
 Non-Parent Node Connection,VAV_MID WITH REHEAT_OA-VAV_MID WITH REHEAT_COOLCNODE,CONTROLLER:OUTDOORAIR,VAV_MID WITH REHEAT_OA_CONTROLLER,Sensor,1
 Non-Parent Node Connection,VAV_MID WITH REHEAT_OAINLET NODE,CONTROLLER:OUTDOORAIR,VAV_MID WITH REHEAT_OA_CONTROLLER,Actuator,1
 Non-Parent Node Connection,VAV_MID WITH REHEAT_OARELIEF NODE,CONTROLLER:OUTDOORAIR,VAV_MID WITH REHEAT_OA_CONTROLLER,Actuator,1
 Non-Parent Node Connection,VAV_MID WITH REHEAT SUPPLY EQUIPMENT INLET NODE,CONTROLLER:OUTDOORAIR,VAV_MID WITH REHEAT_OA_CONTROLLER,Sensor,1
 Non-Parent Node Connection,VAV_TOP WITH REHEAT_OA-VAV_TOP WITH REHEAT_COOLCNODE,CONTROLLER:OUTDOORAIR,VAV_TOP WITH REHEAT_OA_CONTROLLER,Sensor,1
 Non-Parent Node Connection,VAV_TOP WITH REHEAT_OAINLET NODE,CONTROLLER:OUTDOORAIR,VAV_TOP WITH REHEAT_OA_CONTROLLER,Actuator,1
 Non-Parent Node Connection,VAV_TOP WITH REHEAT_OARELIEF NODE,CONTROLLER:OUTDOORAIR,VAV_TOP WITH REHEAT_OA_CONTROLLER,Actuator,1
 Non-Parent Node Connection,VAV_TOP WITH REHEAT SUPPLY EQUIPMENT INLET NODE,CONTROLLER:OUTDOORAIR,VAV_TOP WITH REHEAT_OA_CONTROLLER,Sensor,1
 Non-Parent Node Connection,CAV_BAS MIXED AIR OUTLET,CONTROLLER:OUTDOORAIR,CAV_BAS_OA_CONTROLLER,Sensor,1
 Non-Parent Node Connection,CAV_BAS OAINLET NODE,CONTROLLER:OUTDOORAIR,CAV_BAS_OA_CONTROLLER,Actuator,1
 Non-Parent Node Connection,CAV_BAS OARELIEF NODE,CONTROLLER:OUTDOORAIR,CAV_BAS_OA_CONTROLLER,Actuator,1
 Non-Parent Node Connection,CAV_BAS SUPPLY EQUIPMENT INLET NODE,CONTROLLER:OUTDOORAIR,CAV_BAS_OA_CONTROLLER,Sensor,1
 Non-Parent Node Connection,AIRLOOP DATACENTER BASEMENT MIXED AIR OUTLET,CONTROLLER:OUTDOORAIR,AIRLOOP DATACENTER BASEMENT_OA_CONTROLLER,Sensor,1
 Non-Parent Node Connection,AIRLOOP DATACENTER BASEMENT OAINLET NODE,CONTROLLER:OUTDOORAIR,AIRLOOP DATACENTER BASEMENT_OA_CONTROLLER,Actuator,1
 Non-Parent Node Connection,AIRLOOP DATACENTER BASEMENT OARELIEF NODE,CONTROLLER:OUTDOORAIR,AIRLOOP DATACENTER BASEMENT_OA_CONTROLLER,Actuator,1
 Non-Parent Node Connection,AIRLOOP DATACENTER BASEMENT SUPPLY EQUIPMENT INLET NODE,CONTROLLER:OUTDOORAIR,AIRLOOP DATACENTER BASEMENT_OA_CONTROLLER,Sensor,1
 Non-Parent Node Connection,AIRLOOP DATACENTER BOT MIXED AIR OUTLET,CONTROLLER:OUTDOORAIR,AIRLOOP DATACENTER BOT_OA_CONTROLLER,Sensor,1
 Non-Parent Node Connection,AIRLOOP DATACENTER BOT OAINLET NODE,CONTROLLER:OUTDOORAIR,AIRLOOP DATACENTER BOT_OA_CONTROLLER,Actuator,1
 Non-Parent Node Connection,AIRLOOP DATACENTER BOT OARELIEF NODE,CONTROLLER:OUTDOORAIR,AIRLOOP DATACENTER BOT_OA_CONTROLLER,Actuator,1
 Non-Parent Node Connection,AIRLOOP DATACENTER BOT SUPPLY EQUIPMENT INLET NODE,CONTROLLER:OUTDOORAIR,AIRLOOP DATACENTER BOT_OA_CONTROLLER,Sensor,1
 Non-Parent Node Connection,AIRLOOP DATACENTER MID MIXED AIR OUTLET,CONTROLLER:OUTDOORAIR,AIRLOOP DATACENTER MID_OA_CONTROLLER,Sensor,1
 Non-Parent Node Connection,AIRLOOP DATACENTER MID OAINLET NODE,CONTROLLER:OUTDOORAIR,AIRLOOP DATACENTER MID_OA_CONTROLLER,Actuator,1
 Non-Parent Node Connection,AIRLOOP DATACENTER MID OARELIEF NODE,CONTROLLER:OUTDOORAIR,AIRLOOP DATACENTER MID_OA_CONTROLLER,Actuator,1
 Non-Parent Node Connection,AIRLOOP DATACENTER MID SUPPLY EQUIPMENT INLET NODE,CONTROLLER:OUTDOORAIR,AIRLOOP DATACENTER MID_OA_CONTROLLER,Sensor,1
 Non-Parent Node Connection,AIRLOOP DATACENTER TOP MIXED AIR OUTLET,CONTROLLER:OUTDOORAIR,AIRLOOP DATACENTER TOP_OA_CONTROLLER,Sensor,1
 Non-Parent Node Connection,AIRLOOP DATACENTER TOP OAINLET NODE,CONTROLLER:OUTDOORAIR,AIRLOOP DATACENTER TOP_OA_CONTROLLER,Actuator,1
 Non-Parent Node Connection,AIRLOOP DATACENTER TOP OARELIEF NODE,CONTROLLER:OUTDOORAIR,AIRLOOP DATACENTER TOP_OA_CONTROLLER,Actuator,1
 Non-Parent Node Connection,AIRLOOP DATACENTER TOP SUPPLY EQUIPMENT INLET NODE,CONTROLLER:OUTDOORAIR,AIRLOOP DATACENTER TOP_OA_CONTROLLER,Sensor,1
 Non-Parent Node Connection,AIRLOOP DATACENTER BASEMENT CCOIL WATER INLET,COIL:COOLING:WATERTOAIRHEATPUMP:EQUATIONFIT,AIRLOOP DATACENTER BASEMENT COOLING COIL,Inlet,2
 Non-Parent Node Connection,AIRLOOP DATACENTER BASEMENT CCOIL WATER OUTLET,COIL:COOLING:WATERTOAIRHEATPUMP:EQUATIONFIT,AIRLOOP DATACENTER BASEMENT COOLING COIL,Outlet,2
 Non-Parent Node Connection,AIRLOOP DATACENTER BASEMENT SUPPLY FAN OUTLET,COIL:COOLING:WATERTOAIRHEATPUMP:EQUATIONFIT,AIRLOOP DATACENTER BASEMENT COOLING COIL,Inlet,1
 Non-Parent Node Connection,AIRLOOP DATACENTER BASEMENT COOLING COIL OUTLET,COIL:COOLING:WATERTOAIRHEATPUMP:EQUATIONFIT,AIRLOOP DATACENTER BASEMENT COOLING COIL,Outlet,1
 Non-Parent Node Connection,AIRLOOP DATACENTER BOT CCOIL WATER INLET,COIL:COOLING:WATERTOAIRHEATPUMP:EQUATIONFIT,AIRLOOP DATACENTER BOT COOLING COIL,Inlet,2
 Non-Parent Node Connection,AIRLOOP DATACENTER BOT CCOIL WATER OUTLET,COIL:COOLING:WATERTOAIRHEATPUMP:EQUATIONFIT,AIRLOOP DATACENTER BOT COOLING COIL,Outlet,2
 Non-Parent Node Connection,AIRLOOP DATACENTER BOT SUPPLY FAN OUTLET,COIL:COOLING:WATERTOAIRHEATPUMP:EQUATIONFIT,AIRLOOP DATACENTER BOT COOLING COIL,Inlet,1
 Non-Parent Node Connection,AIRLOOP DATACENTER BOT COOLING COIL OUTLET,COIL:COOLING:WATERTOAIRHEATPUMP:EQUATIONFIT,AIRLOOP DATACENTER BOT COOLING COIL,Outlet,1
 Non-Parent Node Connection,AIRLOOP DATACENTER MID CCOIL WATER INLET,COIL:COOLING:WATERTOAIRHEATPUMP:EQUATIONFIT,AIRLOOP DATACENTER MID COOLING COIL,Inlet,2
 Non-Parent Node Connection,AIRLOOP DATACENTER MID CCOIL WATER OUTLET,COIL:COOLING:WATERTOAIRHEATPUMP:EQUATIONFIT,AIRLOOP DATACENTER MID COOLING COIL,Outlet,2
 Non-Parent Node Connection,AIRLOOP DATACENTER MID SUPPLY FAN OUTLET,COIL:COOLING:WATERTOAIRHEATPUMP:EQUATIONFIT,AIRLOOP DATACENTER MID COOLING COIL,Inlet,1
 Non-Parent Node Connection,AIRLOOP DATACENTER MID COOLING COIL OUTLET,COIL:COOLING:WATERTOAIRHEATPUMP:EQUATIONFIT,AIRLOOP DATACENTER MID COOLING COIL,Outlet,1
 Non-Parent Node Connection,AIRLOOP DATACENTER TOP CCOIL WATER INLET,COIL:COOLING:WATERTOAIRHEATPUMP:EQUATIONFIT,AIRLOOP DATACENTER TOP COOLING COIL,Inlet,2
 Non-Parent Node Connection,AIRLOOP DATACENTER TOP CCOIL WATER OUTLET,COIL:COOLING:WATERTOAIRHEATPUMP:EQUATIONFIT,AIRLOOP DATACENTER TOP COOLING COIL,Outlet,2
 Non-Parent Node Connection,AIRLOOP DATACENTER TOP SUPPLY FAN OUTLET,COIL:COOLING:WATERTOAIRHEATPUMP:EQUATIONFIT,AIRLOOP DATACENTER TOP COOLING COIL,Inlet,1
 Non-Parent Node Connection,AIRLOOP DATACENTER TOP COOLING COIL OUTLET,COIL:COOLING:WATERTOAIRHEATPUMP:EQUATIONFIT,AIRLOOP DATACENTER TOP COOLING COIL,Outlet,1
 Non-Parent Node Connection,AIRLOOP DATACENTER BASEMENT HCOIL WATER INLET,COIL:HEATING:WATERTOAIRHEATPUMP:EQUATIONFIT,AIRLOOP DATACENTER BASEMENT HEATING COIL,Inlet,2
 Non-Parent Node Connection,AIRLOOP DATACENTER BASEMENT HCOIL WATER OUTLET,COIL:HEATING:WATERTOAIRHEATPUMP:EQUATIONFIT,AIRLOOP DATACENTER BASEMENT HEATING COIL,Outlet,2
 Non-Parent Node Connection,AIRLOOP DATACENTER BASEMENT COOLING COIL OUTLET,COIL:HEATING:WATERTOAIRHEATPUMP:EQUATIONFIT,AIRLOOP DATACENTER BASEMENT HEATING COIL,Inlet,1
 Non-Parent Node Connection,AIRLOOP DATACENTER BASEMENT HEATING COIL OUTLET,COIL:HEATING:WATERTOAIRHEATPUMP:EQUATIONFIT,AIRLOOP DATACENTER BASEMENT HEATING COIL,Outlet,1
 Non-Parent Node Connection,AIRLOOP DATACENTER BOT HCOIL WATER INLET,COIL:HEATING:WATERTOAIRHEATPUMP:EQUATIONFIT,AIRLOOP DATACENTER BOT HEATING COIL,Inlet,2
 Non-Parent Node Connection,AIRLOOP DATACENTER BOT HCOIL WATER OUTLET,COIL:HEATING:WATERTOAIRHEATPUMP:EQUATIONFIT,AIRLOOP DATACENTER BOT HEATING COIL,Outlet,2
 Non-Parent Node Connection,AIRLOOP DATACENTER BOT COOLING COIL OUTLET,COIL:HEATING:WATERTOAIRHEATPUMP:EQUATIONFIT,AIRLOOP DATACENTER BOT HEATING COIL,Inlet,1
 Non-Parent Node Connection,AIRLOOP DATACENTER BOT HEATING COIL OUTLET,COIL:HEATING:WATERTOAIRHEATPUMP:EQUATIONFIT,AIRLOOP DATACENTER BOT HEATING COIL,Outlet,1
 Non-Parent Node Connection,AIRLOOP DATACENTER MID HCOIL WATER INLET,COIL:HEATING:WATERTOAIRHEATPUMP:EQUATIONFIT,AIRLOOP DATACENTER MID HEATING COIL,Inlet,2
 Non-Parent Node Connection,AIRLOOP DATACENTER MID HCOIL WATER OUTLET,COIL:HEATING:WATERTOAIRHEATPUMP:EQUATIONFIT,AIRLOOP DATACENTER MID HEATING COIL,Outlet,2
 Non-Parent Node Connection,AIRLOOP DATACENTER MID COOLING COIL OUTLET,COIL:HEATING:WATERTOAIRHEATPUMP:EQUATIONFIT,AIRLOOP DATACENTER MID HEATING COIL,Inlet,1
 Non-Parent Node Connection,AIRLOOP DATACENTER MID HEATING COIL OUTLET,COIL:HEATING:WATERTOAIRHEATPUMP:EQUATIONFIT,AIRLOOP DATACENTER MID HEATING COIL,Outlet,1
 Non-Parent Node Connection,AIRLOOP DATACENTER TOP HCOIL WATER INLET,COIL:HEATING:WATERTOAIRHEATPUMP:EQUATIONFIT,AIRLOOP DATACENTER TOP HEATING COIL,Inlet,2
 Non-Parent Node Connection,AIRLOOP DATACENTER TOP HCOIL WATER OUTLET,COIL:HEATING:WATERTOAIRHEATPUMP:EQUATIONFIT,AIRLOOP DATACENTER TOP HEATING COIL,Outlet,2
 Non-Parent Node Connection,AIRLOOP DATACENTER TOP COOLING COIL OUTLET,COIL:HEATING:WATERTOAIRHEATPUMP:EQUATIONFIT,AIRLOOP DATACENTER TOP HEATING COIL,Inlet,1
 Non-Parent Node Connection,AIRLOOP DATACENTER TOP HEATING COIL OUTLET,COIL:HEATING:WATERTOAIRHEATPUMP:EQUATIONFIT,AIRLOOP DATACENTER TOP HEATING COIL,Outlet,1
 Non-Parent Node Connection,AIRLOOP DATACENTER BASEMENT HEATING COIL OUTLET,COIL:HEATING:ELECTRIC,AIRLOOP DATACENTER BASEMENT_SUPPHEATCOIL,Inlet,1
 Non-Parent Node Connection,AIRLOOP DATACENTER BASEMENT SUP HEATC OUTLET NODE,COIL:HEATING:ELECTRIC,AIRLOOP DATACENTER BASEMENT_SUPPHEATCOIL,Outlet,1
 Non-Parent Node Connection,AIRLOOP DATACENTER BOT HEATING COIL OUTLET,COIL:HEATING:ELECTRIC,AIRLOOP DATACENTER BOT_SUPPHEATCOIL,Inlet,1
 Non-Parent Node Connection,AIRLOOP DATACENTER BOT SUPPLY EQUIPMENT OUTLET NODE,COIL:HEATING:ELECTRIC,AIRLOOP DATACENTER BOT_SUPPHEATCOIL,Outlet,1
 Non-Parent Node Connection,AIRLOOP DATACENTER MID HEATING COIL OUTLET,COIL:HEATING:ELECTRIC,AIRLOOP DATACENTER MID_SUPPHEATCOIL,Inlet,1
 Non-Parent Node Connection,AIRLOOP DATACENTER MID SUPPLY EQUIPMENT OUTLET NODE,COIL:HEATING:ELECTRIC,AIRLOOP DATACENTER MID_SUPPHEATCOIL,Outlet,1
 Non-Parent Node Connection,AIRLOOP DATACENTER TOP HEATING COIL OUTLET,COIL:HEATING:ELECTRIC,AIRLOOP DATACENTER TOP_SUPPHEATCOIL,Inlet,1
 Non-Parent Node Connection,AIRLOOP DATACENTER TOP SUPPLY EQUIPMENT OUTLET NODE,COIL:HEATING:ELECTRIC,AIRLOOP DATACENTER TOP_SUPPHEATCOIL,Outlet,1
 Non-Parent Node Connection,COMMON OSA INLET NODE,AIRLOOPHVAC:UNITARYHEATPUMP:WATERTOAIR,AIRLOOP DATACENTER BASEMENT DXAC HEAT PUMP,OutsideAirReference,1
 Non-Parent Node Connection,COMMON OSA INLET NODE,AIRLOOPHVAC:UNITARYHEATPUMP:WATERTOAIR,AIRLOOP DATACENTER BOT DXAC HEAT PUMP,OutsideAirReference,1
 Non-Parent Node Connection,COMMON OSA INLET NODE,AIRLOOPHVAC:UNITARYHEATPUMP:WATERTOAIR,AIRLOOP DATACENTER MID DXAC HEAT PUMP,OutsideAirReference,1
 Non-Parent Node Connection,COMMON OSA INLET NODE,AIRLOOPHVAC:UNITARYHEATPUMP:WATERTOAIR,AIRLOOP DATACENTER TOP DXAC HEAT PUMP,OutsideAirReference,1
 Non-Parent Node Connection,AIRLOOP DATACENTER BASEMENT SUP HEATC OUTLET NODE,HUMIDIFIER:STEAM:ELECTRIC,DATACENTER_BASEMENT_ZN_6 HUMIDIFIER,Inlet,1
 Non-Parent Node Connection,AIRLOOP DATACENTER BASEMENT SUPPLY EQUIPMENT OUTLET NODE,HUMIDIFIER:STEAM:ELECTRIC,DATACENTER_BASEMENT_ZN_6 HUMIDIFIER,Outlet,1
 Non-Parent Node Connection,HEATSYS1 SUPPLY INLET NODE,PUMP:VARIABLESPEED,HEATSYS1 PUMP,Inlet,1
 Non-Parent Node Connection,HEATSYS1 PUMP-HEATSYS1 BOILERNODEVIACONNECTOR,PUMP:VARIABLESPEED,HEATSYS1 PUMP,Outlet,1
 Non-Parent Node Connection,COOLSYS1 DEMAND INLET NODE,PUMP:VARIABLESPEED,COOLSYS1 PUMP SECONDARY,Inlet,1
 Non-Parent Node Connection,COOLSYS1 PUMP SECONDARY-COOLSYS1 DEMAND MIXER,PUMP:VARIABLESPEED,COOLSYS1 PUMP SECONDARY,Outlet,1
 Non-Parent Node Connection,COOLSYS1 CHILLER1 PUMP INLET NODE,PUMP:CONSTANTSPEED,COOLSYS1 CHILLER1 PUMP,Inlet,1
 Non-Parent Node Connection,COOLSYS1 PUMP-COOLSYS1 CHILLER1NODE,PUMP:CONSTANTSPEED,COOLSYS1 CHILLER1 PUMP,Outlet,1
 Non-Parent Node Connection,COOLSYS1 CHILLER2 PUMP INLET NODE,PUMP:CONSTANTSPEED,COOLSYS1 CHILLER2 PUMP,Inlet,1
 Non-Parent Node Connection,COOLSYS1 PUMP-COOLSYS1 CHILLER2NODE,PUMP:CONSTANTSPEED,COOLSYS1 CHILLER2 PUMP,Outlet,1
 Non-Parent Node Connection,PLANT SUPPLY INLET NODE,PUMP:CONSTANTSPEED,PLANT CIRC PUMP,Inlet,1
 Non-Parent Node Connection,PLANT PUMP OUTLET NODE,PUMP:CONSTANTSPEED,PLANT CIRC PUMP,Outlet,1
 Non-Parent Node Connection,SWHSYS1 SUPPLY INLET NODE,PUMP:CONSTANTSPEED,SWHSYS1 PUMP,Inlet,1
 Non-Parent Node Connection,SWHSYS1 PUMP-WATER HEATERNODEVIACONNECTOR,PUMP:CONSTANTSPEED,SWHSYS1 PUMP,Outlet,1
 Non-Parent Node Connection,TOWERWATERSYS SUPPLY INLET NODE,HEADEREDPUMPS:VARIABLESPEED,TOWERWATERSYS PUMP,Inlet,1
 Non-Parent Node Connection,TOWERWATERSYS PUMP-TOWERWATERSYS COOLTOWERNODEVIACONNECTOR,HEADEREDPUMPS:VARIABLESPEED,TOWERWATERSYS PUMP,Outlet,1
 Non-Parent Node Connection,CENTRAL TOWER INLET NODE,PLANTEQUIPMENTOPERATION:COMPONENTSETPOINT,WSHPPLANT OPERATION SCHEME,Sensor,1
 Non-Parent Node Connection,PLANT SUPPLY OUTLET NODE,PLANTEQUIPMENTOPERATION:COMPONENTSETPOINT,WSHPPLANT OPERATION SCHEME,Sensor,1
 Non-Parent Node Connection,CENTRAL BOILER INLET NODE,PLANTEQUIPMENTOPERATION:COMPONENTSETPOINT,WSHPPLANT OPERATION SCHEME,Sensor,1
